geometry optimzed in LAMMPS
_audit_creation_date              2020-12-01 
_audit_creation_method            'lammps2cif' 
_symmetry_space_group_name_H-M    'P1' 
_symmetry_Int_Tables_number       1 
_symmetry_cell_setting            triclinic 
loop_ 
_symmetry_equiv_pos_as_xyz 
  x,y,z 
_cell_length_a                    47.32230621 
_cell_length_b                    45.75779675081703 
_cell_length_c                    135.23514307413222 
_cell_angle_alpha                 87.04206682591206 
_cell_angle_beta                  91.54485101416714 
_cell_angle_gamma                 119.97890307110364 
loop_ 
_atom_site_label 
_atom_site_type_symbol 
_atom_site_fract_x 
_atom_site_fract_y 
_atom_site_fract_z 
_atom_site_charge 
O1          O  0.09966640  0.28673217  0.38408665    -0.81100
O2          O  0.21632128  0.33031906  0.35606212    -0.65800
O3          O  0.15593223  0.28786642  0.37726947    -1.12400
C4          C  0.22015048  0.38843658  0.39328866     1.05800
O5          O  0.26046304  0.35432579  0.36556892    -0.79000
O6          O  0.24430714  0.32941907  0.38456510    -0.66500
Ni7        Ni  0.11004496  0.26343502  0.37465075     1.34900
C8          C  0.22419821  0.31255528  0.39147382     0.84600
O9          O  0.16679598  0.26810414  0.35913218    -0.79500
O10         O  0.11578745  0.23740808  0.36505397    -0.89800
C11         C  0.24703038  0.34575151  0.35711927     0.84100
O12         O  0.10844988  0.29298370  0.36449740    -0.68000
O13         O  0.24323732  0.38706666  0.38907506    -0.87300
C14         C  0.12987408  0.31585492  0.35884083     0.85000
C15         C  0.13852669  0.24187740  0.35924344     1.06500
H16         H  0.19990766  0.36512740  0.37052492     0.38300
O17         O  0.20329166  0.34805574  0.37394582    -1.09900
O18         O  0.19803661  0.31343367  0.39264789    -0.66600
Ni19       Ni  0.17258434  0.32783129  0.38455880     1.26300
O20         O  0.15971161  0.32380957  0.35911830    -0.66800
O21         O  0.19023495  0.36866404  0.39137220    -0.79100
C22         C  0.11006033  0.29262227  0.39291770     0.84300
O23         O  0.14033207  0.30622406  0.39474219    -0.66300
Ni24       Ni  0.24861653  0.36830295  0.37728182     1.27400
Ni25       Ni  0.18544292  0.30838078  0.36643729     1.26100
H26         H  0.16119175  0.27213372  0.38072128     0.38900
O27         O  0.45459725  0.02201880  0.26337179    -0.81100
O28         O  0.02335727  0.45836101  0.29006447    -0.65800
O29         O  0.50194920  0.00603813  0.27051317    -1.12400
C30         C  0.46280613  0.41096397  0.25169259     1.05800
O31         O  0.03188511  0.42533660  0.28054705    -0.79000
O32         O  0.04452222  0.46057036  0.26268911    -0.66500
Ni33       Ni  0.48056602  0.02907526  0.27513773     1.34900
C34         C  0.04229433  0.47928446  0.25579361     0.84600
O35         O  0.03865216  0.02066375  0.28781590    -0.79500
O36         O  0.00505447  0.04152838  0.28734364    -0.89800
C37         C  0.03292443  0.43744001  0.28888359     0.84100
O38         O  0.44715525  0.49191489  0.28102814    -0.68000
O39         O  0.48711421  0.41010212  0.25560702    -0.87300
C40         C  0.44988274  0.47231329  0.28747524     0.85000
C41         C  0.02952088  0.04022927  0.29097918     1.06500
H42         H  0.46768157  0.42848907  0.27589336     0.38300
O43         O  0.48756325  0.44439803  0.27247150    -1.09900
O44         O  0.01500886  0.98098646  0.25457954    -0.66600
Ni45       Ni  0.47786118  0.46872001  0.26229561     1.26300
O46         O  0.47571046  0.47029227  0.28840352    -0.66800
O47         O  0.45248571  0.42965223  0.25477906    -0.79100
C48         C  0.45415323  0.01180227  0.25477260     0.84300
O49         O  0.46613317  0.99324857  0.25298312    -0.66300
Ni50       Ni  0.00870157  0.42061291  0.26827141     1.27400
Ni51       Ni  0.01335631  0.48298049  0.28024125     1.26100
H52         H  0.02160817  0.02238568  0.26707164     0.38900
C53         C  0.15873740  0.32454513  0.78210439     0.45300
H54         H  0.15829459  0.32516781  0.77388396    -0.03700
C55         C  0.15861256  0.32187564  0.80135422     0.45300
H56         H  0.15885128  0.32038475  0.80957232    -0.03700
C57         C  0.19310397  0.34085774  0.78661311    -0.17400
C58         C  0.14244518  0.34268386  0.78654545    -0.17200
C59         C  0.14044419  0.28860603  0.78666583    -0.17600
C60         C  0.19309011  0.33891689  0.79681319    -0.17600
C61         C  0.14274399  0.34187358  0.79677492    -0.17100
C62         C  0.14014259  0.28700194  0.79678869    -0.17400
C63         C  0.48654937  0.47598520  0.84379312     0.45300
H64         H  0.48636969  0.47693821  0.83556939    -0.03700
C65         C  0.48722536  0.47412342  0.86304792     0.45300
H66         H  0.48752148  0.47337162  0.87127754    -0.03700
C67         C  0.50312616  0.01193302  0.84810528    -0.17400
C68         C  0.45225912  0.45694602  0.84842054    -0.17200
C69         C  0.50492139  0.45872438  0.84842020    -0.17600
C70         C  0.50337480  0.01106614  0.85827956    -0.17600
C71         C  0.45276834  0.45608327  0.85860312    -0.17100
C72         C  0.50513040  0.45774733  0.85861285    -0.17400
C73         C  0.17135305  0.30809641  0.51037080     0.45300
H74         H  0.17180004  0.31127990  0.50216587    -0.03700
C75         C  0.17059133  0.30065796  0.52957061     0.45300
H76         H  0.17040083  0.29746365  0.53777558    -0.03700
C77         C  0.18923127  0.34169378  0.51559650    -0.17400
C78         C  0.13677851  0.28950246  0.51481561    -0.17200
C79         C  0.18770835  0.28804245  0.51433773    -0.17600
C80         C  0.18879296  0.33769235  0.52574964    -0.17600
C81         C  0.13645964  0.28532625  0.52497272    -0.17100
C82         C  0.18713524  0.28409842  0.52447558    -0.17400
C83         C  0.34349305  0.15417509  0.44947034     0.45300
H84         H  0.34355133  0.15458561  0.44124655    -0.03700
C85         C  0.34334022  0.15323968  0.46871064     0.45300
H86         H  0.34347805  0.15297322  0.47693122    -0.03700
C87         C  0.32676271  0.17217104  0.45362590    -0.17400
C88         C  0.32557503  0.11848399  0.45431986    -0.17200
C89         C  0.37776108  0.17117521  0.45402380    -0.17600
C90         C  0.32683336  0.17196429  0.46379745    -0.17600
C91         C  0.32552287  0.11785334  0.46450075    -0.17100
C92         C  0.37761111  0.17047010  0.46418744    -0.17400
O93         O  0.25996760  0.11680948  0.61159447    -0.81100
O94         O  0.37770454  0.15418051  0.58437606    -0.65800
O95         O  0.31427828  0.11424755  0.60492891    -1.12400
C96         C  0.38228584  0.21755930  0.62034785     1.05800
O97         O  0.41815644  0.17010379  0.59513837    -0.79000
O98         O  0.40714626  0.16115242  0.61480611    -0.66500
Ni99       Ni  0.26873311  0.09259982  0.60203071     1.34900
C100        C  0.38471231  0.14080061  0.62069740     0.84600
O101        O  0.32521182  0.09317376  0.58709410    -0.79500
O102        O  0.27326439  0.06578288  0.59241248    -0.89800
C103        C  0.40747928  0.16442829  0.58630261     0.84100
O104        O  0.27007350  0.12397000  0.59194570    -0.68000
O105        O  0.40511852  0.21977548  0.61497167    -0.87300
C106        C  0.29237820  0.14528060  0.58617800     0.85000
C107        C  0.29610466  0.06830249  0.58698630     1.06500
H108        H  0.36047075  0.19014550  0.59854555     0.38300
O109        O  0.36369373  0.17298512  0.60197704    -1.09900
O110        O  0.35600219  0.13643408  0.62037930    -0.66600
Ni111      Ni  0.33275972  0.15371878  0.61252102     1.26300
O112        O  0.32152870  0.15084582  0.58654469    -0.66800
O113        O  0.35267838  0.19387731  0.61983190    -0.79100
C114        C  0.26963007  0.12033742  0.62053273     0.84300
O115        O  0.29973575  0.13270652  0.62251783    -0.66300
Ni116      Ni  0.40922516  0.19362115  0.60498339     1.27400
Ni117      Ni  0.34496279  0.13352084  0.59436452     1.26100
H118        H  0.31788965  0.09734263  0.60835927     0.38900
O119        O  0.41299884  0.45402236  0.71615406    -0.81100
O120        O  0.03585844  0.00024803  0.68995231    -0.65800
O121        O  0.47063297  0.45689629  0.70948941    -1.12400
C122        C  0.03068240  0.05235268  0.72786319     1.05800
O123        O  0.07828327  0.02977339  0.69979089    -0.79000
O124        O  0.05705723  0.49434836  0.71731352    -0.66500
Ni125      Ni  0.42538940  0.43524148  0.70579822     1.34900
C126        C  0.03627294  0.47686701  0.72400438     0.84600
O127        O  0.48549070  0.43860051  0.69181242    -0.79500
O128        O  0.43207574  0.41295828  0.69518273    -0.89800
C129        C  0.06627932  0.01875722  0.69133663     0.84100
O130        O  0.42793242  0.47009635  0.69687843    -0.68000
O131        O  0.05389906  0.04910851  0.72458038    -0.87300
C132        C  0.45045678  0.49076220  0.69106924     0.85000
C133        C  0.45616112  0.41553755  0.69042357     1.06500
H134        H  0.01559697  0.03473367  0.70391102     0.38300
O135        O  0.01822641  0.01728639  0.70741030    -1.09900
O136        O  0.01087614  0.47914721  0.72534519    -0.66600
Ni137      Ni  0.48700338  0.49576449  0.71724289     1.26300
O138        O  0.47898582  0.99456428  0.69138092    -0.66800
O139        O  0.00173866  0.03546883  0.72465752    -0.79100
C140        C  0.42337921  0.46007862  0.72499390     0.84300
O141        O  0.45350369  0.47323024  0.72697123    -0.66300
Ni142      Ni  0.06247100  0.03665779  0.71199382     1.27400
Ni143      Ni  0.00272043  0.47814315  0.69931813     1.26100
H144        H  0.47411732  0.43992436  0.71293212     0.38900
C145        C  0.30821463  0.14394161  0.19789543     0.45300
H146        H  0.31061719  0.14456601  0.20608600    -0.03700
C147        C  0.30341463  0.14258047  0.17867838     0.45300
H148        H  0.30182573  0.14254197  0.17046943    -0.03700
C149        C  0.32356097  0.17905366  0.19268321    -0.17400
C150        C  0.32474905  0.12643409  0.19325604    -0.17200
C151        C  0.27275827  0.12499194  0.19416521    -0.17600
C152        C  0.32109917  0.17831693  0.18257338    -0.17600
C153        C  0.32235334  0.12583143  0.18312290    -0.17100
C154        C  0.27008913  0.12486319  0.18396530    -0.17400
C155        C  0.97567095  0.48800057  0.13662459     0.45300
H156        H  0.97423755  0.48622836  0.14483967    -0.03700
C157        C  0.97886263  0.49195046  0.11740902     0.45300
H158        H  0.98019493  0.49343246  0.10919566    -0.03700
C159        C  0.45848142  0.45346429  0.13188751    -0.17400
C160        C  0.45985555  0.50745233  0.13170093    -0.17200
C161        C  0.01081149  0.50579567  0.13266008    -0.17600
C162        C  0.46016370  0.45562047  0.12172479    -0.17600
C163        C  0.46158140  0.50956952  0.12151697    -0.17100
C164        C  0.01239577  0.50789160  0.12248317    -0.17400
O165        O  0.06969442  0.27726024  0.94481611    -0.81100
O166        O  0.19422388  0.32744969  0.91889417    -0.65800
O167        O  0.12791764  0.28066349  0.93841957    -1.12400
C168        C  0.18971352  0.38065922  0.95583033     1.05800
O169        O  0.23339739  0.34249924  0.93007980    -0.79000
O170        O  0.21799340  0.32634009  0.94946415    -0.66500
Ni171      Ni  0.08276258  0.25783900  0.93477861     1.34900
C172        C  0.19508820  0.30575411  0.95518539     0.84600
O173        O  0.14332494  0.26507885  0.92016568    -0.79500
O174        O  0.09063149  0.23501976  0.92460725    -0.89800
C175        C  0.22406345  0.33926631  0.92109242     0.84100
O176        O  0.08446181  0.29127380  0.92539252    -0.68000
O177        O  0.21396491  0.38345518  0.95108019    -0.87300
C178        C  0.10724235  0.31453851  0.92015892     0.85000
C179        C  0.11470287  0.23982445  0.91936339     1.06500
H180        H  0.17328128  0.35831256  0.93341748     0.38300
O181        O  0.17631511  0.34075493  0.93665713    -1.09900
O182        O  0.16651255  0.30173617  0.95470828    -0.66600
Ni183      Ni  0.14348487  0.31867126  0.94656873     1.26300
O184        O  0.13666426  0.32098454  0.92072224    -0.66800
O185        O  0.16032516  0.35759127  0.95438667    -0.79100
C186        C  0.07913456  0.28215502  0.95377505     0.84300
O187        O  0.10910787  0.29519788  0.95597682    -0.66300
Ni188      Ni  0.22120903  0.36145500  0.94049259     1.27400
Ni189      Ni  0.16020976  0.30330036  0.92832355     1.26100
H190        H  0.13199663  0.26387300  0.94170710     0.38900
O191        O  0.22887062  0.12420671  0.05185354    -0.81100
O192        O  0.34592209  0.16815661  0.02324793    -0.65800
O193        O  0.28333307  0.12347848  0.04391710    -1.12400
C194        C  0.35181547  0.22027731  0.06177422     1.05800
O195        O  0.38894930  0.18657332  0.03314710    -0.79000
O196        O  0.37460798  0.16324408  0.05212383    -0.66500
Ni197      Ni  0.23764950  0.10381351  0.04105267     1.34900
C198        C  0.35320307  0.14312768  0.05832411     0.84600
O199        O  0.29373972  0.10667618  0.02529299    -0.79500
O200        O  0.24142046  0.08036080  0.03021702    -0.89800
C201        C  0.37645081  0.18144860  0.02452584     0.84100
O202        O  0.23961876  0.13869595  0.03216109    -0.68000
O203        O  0.37451956  0.22125986  0.05664957    -0.87300
C204        C  0.26201466  0.16003388  0.02641568     0.85000
C205        C  0.26409122  0.08318774  0.02465051     1.06500
H206        H  0.33005970  0.20080371  0.03889766     0.38300
O207        O  0.33307470  0.18278248  0.04178030    -1.09900
O208        O  0.32592833  0.14187400  0.05933403    -0.66600
Ni209      Ni  0.30225498  0.16085908  0.05233164     1.26300
O210        O  0.29057698  0.16407701  0.02643925    -0.66800
O211        O  0.32177336  0.19920000  0.06042220    -0.79100
C212        C  0.23969809  0.12682015  0.06066792     0.84300
O213        O  0.26973136  0.13756384  0.06229730    -0.66300
Ni214      Ni  0.37856200  0.20185863  0.04483315     1.27400
Ni215      Ni  0.31393940  0.14514362  0.03337608     1.26100
H216        H  0.28652025  0.10558088  0.04680651     0.38900
C217        C  0.25447017  0.18015208  0.01897685    -0.03500
C218        C  0.22271106  0.17526234  0.01800478    -0.09300
C219        C  0.21503838  0.19145054  0.01020545    -0.17000
C220        C  0.23897469  0.21270659  0.00330879     0.25200
C221        C  0.27080789  0.21853986  0.00439572    -0.18600
C222        C  0.27854985  0.20247751  0.01216948    -0.07500
C223        C  0.23080888  0.22768630  0.99491292    -0.14000
C224        C  0.22444808  0.24004642  0.98772702    -0.13700
C225        C  0.21674228  0.25495245  0.97921289     0.25100
C226        C  0.24080719  0.27496892  0.97220549    -0.19100
C227        C  0.23357940  0.29068268  0.96417817    -0.07600
C228        C  0.20212268  0.28653158  0.96306847    -0.03700
C229        C  0.17793815  0.26566923  0.97004259    -0.09000
C230        C  0.18524512  0.25005700  0.97805260    -0.16600
H231        H  0.20359369  0.15823062  0.02309053     0.11500
H232        H  0.19030387  0.18682660  0.00943398     0.10800
H233        H  0.28952586  0.23497573  0.99910874     0.10800
H234        H  0.30323410  0.20684285  0.01266334     0.11300
H235        H  0.26528103  0.27887420  0.97303235     0.11300
H236        H  0.25278579  0.30662269  0.95897289     0.11300
H237        H  0.15351587  0.26200302  0.96945554     0.11400
H238        H  0.16644034  0.23459237  0.98343087     0.10300
C239        C  0.19655861  0.40508997  0.96358093    -0.03500
C240        C  0.17121177  0.40342102  0.96924291    -0.09300
C241        C  0.17829331  0.42545130  0.97692460    -0.17000
C242        C  0.21071315  0.44930763  0.97902307     0.25200
C243        C  0.23596915  0.45140416  0.97336399    -0.18600
C244        C  0.22900079  0.42953694  0.96569825    -0.07500
C245        C  0.21846183  0.47146014  0.98705511    -0.14000
C246        C  0.22658669  0.49053406  0.99372123    -0.13700
C247        C  0.23594436  0.01190393  0.00179589     0.25100
C248        C  0.26705951  0.04062683  0.00165884    -0.19100
C249        C  0.27661575  0.06355425  0.00920241    -0.07600
C250        C  0.25503293  0.05805351  0.01695868    -0.03700
C251        C  0.22398063  0.02880528  0.01708763    -0.09000
C252        C  0.21455978  0.00589969  0.00956649    -0.16600
H253        H  0.14600365  0.38486580  0.96782839     0.11500
H254        H  0.15855786  0.42366179  0.98127819     0.10800
H255        H  0.26113455  0.46977332  0.97493800     0.10800
H256        H  0.24914982  0.43151736  0.96153037     0.11300
H257        H  0.28380696  0.04547608  0.99566814     0.11300
H258        H  0.30060479  0.08586699  0.00885476     0.11300
H259        H  0.20681337  0.02370375  0.02296608     0.11400
H260        H  0.19047056  0.98368870  0.00976178     0.10300
C261        C  0.39841937  0.19113946  0.01583746    -0.03500
C262        C  0.43242930  0.20673113  0.01722659    -0.09300
C263        C  0.45353623  0.21795075  0.00911578    -0.17000
C264        C  0.44111994  0.21380169  0.99947016     0.25200
C265        C  0.40730582  0.19784451  0.99797597    -0.18600
C266        C  0.38606263  0.18658082  0.00610136    -0.07500
C267        C  0.46331293  0.22640567  0.99118050    -0.14000
C268        C  0.98304520  0.23745189  0.98454050    -0.13700
C269        C  0.00732277  0.25038700  0.97681220     0.25100
C270        C  0.99785516  0.24776680  0.96685633    -0.19100
C271        C  0.02128499  0.25887137  0.95936341    -0.07600
C272        C  0.05461801  0.27279837  0.96171873    -0.03700
C273        C  0.06396440  0.27600951  0.97175282    -0.09000
C274        C  0.04046432  0.26484696  0.97923442    -0.16600
H275        H  0.44285658  0.21076441  0.02459696     0.11500
H276        H  0.47962333  0.23020598  0.01037737     0.10800
H277        H  0.39737979  0.19442709  0.99054017     0.10800
H278        H  0.36005716  0.17476572  0.00476152     0.11300
H279        H  0.97230911  0.23668206  0.96487999     0.11300
H280        H  0.01320708  0.25601331  0.95172656     0.11300
H281        H  0.08936273  0.28654087  0.97383203     0.11400
H282        H  0.04811634  0.26704920  0.98691391     0.10300
C283        C  0.44532168  0.42644679  0.11523125    -0.03500
C284        C  0.45075368  0.39909447  0.11691620    -0.09300
C285        C  0.43595999  0.37143673  0.11084911    -0.17000
C286        C  0.41582387  0.37097638  0.10300269     0.25200
C287        C  0.41079360  0.39844256  0.10119061    -0.18600
C288        C  0.42554445  0.42608557  0.10725759    -0.07500
C289        C  0.40114876  0.34280543  0.09663578    -0.14000
C290        C  0.39035762  0.31991997  0.09104948    -0.13700
C291        C  0.38018870  0.29400246  0.08398379     0.25100
C292        C  0.40380773  0.29223592  0.07847379    -0.19100
C293        C  0.39450184  0.26804219  0.07135374    -0.07600
C294        C  0.36129430  0.24511452  0.06960564    -0.03700
C295        C  0.33763681  0.24673995  0.07528502    -0.09000
C296        C  0.34706684  0.27109882  0.08242553    -0.16600
H297        H  0.46641986  0.39917630  0.12291425     0.11500
H298        H  0.44031765  0.35049088  0.11225067     0.10800
H299        H  0.39548498  0.39848951  0.09509359     0.10800
H300        H  0.42113427  0.44698460  0.10582435     0.11300
H301        H  0.42950018  0.30980449  0.07962067     0.11300
H302        H  0.41341689  0.26752868  0.06716479     0.11300
H303        H  0.31189452  0.22946170  0.07414779     0.11400
H304        H  0.32856087  0.27224363  0.08666039     0.10300
C305        C  0.36101889  0.12124750  0.06495019    -0.03500
C306        C  0.38906588  0.11889281  0.06331134    -0.09300
C307        C  0.39861484  0.10159591  0.07019703    -0.17000
C308        C  0.38033186  0.08643279  0.07881506     0.25200
C309        C  0.35168757  0.08744461  0.08031629    -0.18600
C310        C  0.34199509  0.10460756  0.07341890    -0.07500
C311        C  0.39206872  0.07173704  0.08637791    -0.14000
C312        C  0.40322143  0.06110883  0.09279926    -0.13700
C313        C  0.41796481  0.04960487  0.10034571     0.25100
C314        C  0.39966163  0.02926500  0.10847096    -0.19100
C315        C  0.41392829  0.01734715  0.11560219    -0.07600
C316        C  0.44676031  0.02595288  0.11471485    -0.03700
C317        C  0.46502369  0.04670980  0.10661713    -0.09000
C318        C  0.45074124  0.05849845  0.09949125    -0.16600
H319        H  0.40414020  0.13118613  0.05684083     0.11500
H320        H  0.42077944  0.10089562  0.06893505     0.10800
H321        H  0.33733230  0.07579021  0.08695691     0.10800
H322        H  0.32030185  0.10592525  0.07491593     0.11300
H323        H  0.37425348  0.02215906  0.10920220     0.11300
H324        H  0.40019714  0.50219895  0.12205788     0.11300
H325        H  0.99032179  0.05352384  0.10575866     0.11400
H326        H  0.46517241  0.07424304  0.09325223     0.10300
C327        C  0.04282026  0.52397677  0.11656678    -0.03500
C328        C  0.04556088  0.50698884  0.10862486    -0.09300
C329        C  0.07346405  0.52221609  0.10270886    -0.17000
C330        C  0.09953664  0.05624156  0.10543197     0.25200
C331        C  0.09650810  0.07333171  0.11327971    -0.18600
C332        C  0.06831966  0.05789299  0.11912382    -0.07500
C333        C  0.12740992  0.07251462  0.09895253    -0.14000
C334        C  0.14892064  0.08451167  0.09285987    -0.13700
C335        C  0.17233865  0.09687126  0.08491273     0.25100
C336        C  0.16206156  0.09839330  0.07519679    -0.19100
C337        C  0.18410602  0.10872940  0.06734614    -0.07600
C338        C  0.21689245  0.11780069  0.06909111    -0.03700
C339        C  0.22714698  0.11666781  0.07890869    -0.09000
C340        C  0.20497048  0.10619385  0.08676149    -0.16600
H341        H  0.02607557  0.48189608  0.10700419     0.11500
H342        H  0.07502855  0.50883268  0.09655632     0.10800
H343        H  0.11561273  0.09874535  0.11476101     0.10800
H344        H  0.06593901  0.07170559  0.12500572     0.11300
H345        H  0.13684954  0.09113825  0.07366790     0.11300
H346        H  0.17534756  0.10923877  0.05989453     0.11300
H347        H  0.25214253  0.12327742  0.08050469     0.11400
H348        H  0.21317739  0.10496188  0.09424767     0.10300
C349        C  0.33894249  0.11344187  0.17684797    -0.03500
C350        C  0.32128396  0.08976923  0.16970749    -0.09300
C351        C  0.33680787  0.07768268  0.16386708    -0.17000
C352        C  0.37016965  0.08928737  0.16509616     0.25200
C353        C  0.38804464  0.11327803  0.17212113    -0.18600
C354        C  0.37252642  0.12539292  0.17795455    -0.07500
C355        C  0.38588520  0.07612482  0.15926682    -0.14000
C356        C  0.39877237  0.06459132  0.15446203    -0.13700
C357        C  0.41400363  0.05054960  0.14878021     0.25100
C358        C  0.40730212  0.01741757  0.15089238    -0.19100
C359        C  0.42208328  0.00374947  0.14535767    -0.07600
C360        C  0.44355878  0.02304511  0.13762257    -0.03700
C361        C  0.45049541  0.05642401  0.13563024    -0.09000
C362        C  0.43565644  0.07003397  0.14115201    -0.16600
H363        H  0.29539981  0.08004227  0.16881113     0.11500
H364        H  0.32274702  0.05906641  0.15846415     0.10800
H365        H  0.41389677  0.12249756  0.17311260     0.10800
H366        H  0.38667875  0.14407283  0.18332915     0.11300
H367        H  0.39061724  0.00215100  0.15679605     0.11300
H368        H  0.41596036  0.47610781  0.14656772     0.11300
H369        H  0.46752183  0.07200276  0.12984307     0.11400
H370        H  0.44114551  0.09576097  0.13949562     0.10300
C371        C  0.33441680  0.20887296  0.17592739    -0.03500
C372        C  0.35640388  0.21360782  0.16843057    -0.09300
C373        C  0.37119958  0.24378643  0.16267829    -0.17000
C374        C  0.36383558  0.26921867  0.16433529     0.25200
C375        C  0.34107260  0.26409314  0.17158642    -0.18600
C376        C  0.32634224  0.23400296  0.17734292    -0.07500
C377        C  0.38011960  0.30089382  0.15877424    -0.14000
C378        C  0.39375848  0.32775233  0.15426734    -0.13700
C379        C  0.40967298  0.35973321  0.14884746     0.25100
C380        C  0.39350658  0.36612553  0.14095680    -0.19100
C381        C  0.40906161  0.39693651  0.13555358    -0.07600
C382        C  0.44114832  0.42146786  0.13790512    -0.03700
C383        C  0.45695441  0.41526494  0.14598172    -0.09000
C384        C  0.44130589  0.38445519  0.15141566    -0.16600
H385        H  0.36286450  0.19443090  0.16725540     0.11500
H386        H  0.38873488  0.24750954  0.15706252     0.10800
H387        H  0.33506352  0.28352854  0.17288144     0.10800
H388        H  0.30900520  0.23049260  0.18299647     0.11300
H389        H  0.36893790  0.34725686  0.13896141     0.11300
H390        H  0.39615682  0.40153697  0.12949404     0.11300
H391        H  0.98164140  0.43395091  0.14793170     0.11400
H392        H  0.45395409  0.37979535  0.15754746     0.10300
C393        C  0.03959769  0.51826222  0.13936721    -0.03500
C394        C  0.06452296  0.51080679  0.13778340    -0.05700
C395        C  0.09259746  0.52457677  0.14368134    -0.17000
C396        C  0.09420260  0.04519486  0.15193434     0.25200
C397        C  0.06974073  0.05326513  0.15344295    -0.18600
C398        C  0.04176039  0.03980051  0.14746832    -0.07500
C399        C  0.12387471  0.06035483  0.15771159    -0.14000
C400        C  0.14923766  0.07284287  0.16228980    -0.13700
C401        C  0.17984895  0.08692558  0.16759112     0.25100
C402        C  0.18443636  0.10483164  0.17613867    -0.19100
C403        C  0.21384677  0.11757673  0.18140029    -0.07600
C404        C  0.23885397  0.11194059  0.17831053    -0.03700
C405        C  0.23434880  0.09484367  0.16955476    -0.09000
C406        C  0.20507400  0.08237299  0.16425341    -0.16600
H407        H  0.06245636  0.49469227  0.13189209     0.11500
H408        H  0.11184664  0.51912966  0.14220133     0.10800
H409        H  0.07254102  0.07038270  0.15912096     0.10800
H410        H  0.02341932  0.04687826  0.14857428     0.11300
H411        H  0.16528478  0.10891173  0.17874497     0.11300
H412        H  0.21701566  0.13184554  0.18788296     0.11300
H413        H  0.25321124  0.09061248  0.16686156     0.11400
H414        H  0.20200034  0.06886583  0.15759725     0.10300
C415        C  0.39246639  0.12199373  0.62851647    -0.03500
C416        C  0.42427111  0.12702667  0.62953561    -0.09300
C417        C  0.43194004  0.11093620  0.63734361    -0.17000
C418        C  0.40796847  0.08964048  0.64421133     0.25200
C419        C  0.37620541  0.08409368  0.64318683    -0.18600
C420        C  0.36846310  0.10011720  0.63539842    -0.07500
C421        C  0.41594899  0.07375580  0.65239083    -0.14000
C422        C  0.42221334  0.06029564  0.65930506    -0.13700
C423        C  0.42949311  0.04387587  0.66749946     0.25100
C424        C  0.40463571  0.02119821  0.67392343    -0.19100
C425        C  0.41152649  0.00441856  0.68171262    -0.07600
C426        C  0.44342849  0.01009852  0.68315437    -0.03700
C427        C  0.46682910  0.53243765  0.67657667    -0.09000
C428        C  0.46136280  0.05010923  0.66895476    -0.16600
H429        H  0.44335359  0.14377345  0.62439890     0.11500
H430        H  0.45661820  0.11536579  0.63807988     0.10800
H431        H  0.35748137  0.06763346  0.64846828     0.10800
H432        H  0.34377983  0.09573883  0.63486590     0.11300
H433        H  0.37986296  0.01619860  0.67284496     0.11300
H434        H  0.39177026  0.98658488  0.68648670     0.11300
H435        H  0.49137456  0.53637589  0.67696473     0.11400
H436        H  0.47775281  0.56555472  0.66364549     0.10300
C437        C  0.44935540  0.39105666  0.68269450    -0.03500
C438        C  0.41698370  0.36649230  0.68055117    -0.09300
C439        C  0.41019794  0.34508208  0.67275928    -0.17000
C440        C  0.43559232  0.34783111  0.66701125     0.25200
C441        C  0.46792787  0.37157484  0.66920729    -0.18600
C442        C  0.47481308  0.39309140  0.67700413    -0.07500
C443        C  0.42817867  0.32698108  0.65866879    -0.14000
C444        C  0.42061986  0.30937396  0.65165723    -0.13700
C445        C  0.41035275  0.28760769  0.64344929     0.25100
C446        C  0.43142690  0.29473756  0.63548850    -0.19100
C447        C  0.42189029  0.27255924  0.62775509    -0.07600
C448        C  0.39105649  0.24303628  0.62788997    -0.03700
C449        C  0.36969735  0.23669829  0.63578591    -0.09000
C450        C  0.37936258  0.25880566  0.64352568    -0.16600
H451        H  0.39677922  0.36422700  0.68475647     0.11500
H452        H  0.38508140  0.32675620  0.67111245     0.10800
H453        H  0.48775497  0.37384734  0.66479256     0.10800
H454        H  0.49997902  0.41171030  0.67844376     0.11300
H455        H  0.45542064  0.31708634  0.63534672     0.11300
H456        H  0.43887051  0.27819771  0.62177407     0.11300
H457        H  0.34592551  0.21408855  0.63615822     0.11400
H458        H  0.36287190  0.25311546  0.64965832     0.10300
C459        C  0.24528969  0.10998273  0.62859108    -0.03500
C460        C  0.25493072  0.11384904  0.63859404    -0.09300
C461        C  0.23153104  0.10189866  0.64614107    -0.17000
C462        C  0.19820734  0.08587746  0.64381239     0.25200
C463        C  0.18843308  0.08229175  0.63388230    -0.18600
C464        C  0.21173894  0.09425384  0.62633418    -0.07500
C465        C  0.17408277  0.07277928  0.65160346    -0.14000
C466        C  0.15440147  0.06199164  0.65826437    -0.13700
C467        C  0.13207332  0.05001920  0.66653286     0.25100
C468        C  0.09830759  0.03089931  0.66502032    -0.19100
C469        C  0.07684907  0.02012529  0.67308359    -0.07600
C470        C  0.08888297  0.02841909  0.68279011    -0.03700
C471        C  0.12289177  0.04730859  0.68421502    -0.09000
C472        C  0.14423719  0.05795627  0.67615987    -0.16600
H473        H  0.28049734  0.12568935  0.64059177     0.11500
H474        H  0.23942739  0.10485405  0.65379949     0.10800
H475        H  0.16276564  0.06995161  0.63196669     0.10800
H476        H  0.20340291  0.09065853  0.61872356     0.11300
H477        H  0.08854454  0.02456189  0.65760705     0.11300
H478        H  0.05085228  0.00574318  0.67169869     0.11300
H479        H  0.13033484  0.53440449  0.69109885     0.11400
H480        H  0.17028724  0.07267882  0.67744058     0.10300
C481        C  0.20438462  0.36548824  0.53267353    -0.03500
C482        C  0.22446752  0.36406690  0.54028827    -0.09300
C483        C  0.23881923  0.38971638  0.54702860    -0.17000
C484        C  0.23307833  0.41692402  0.54624922     0.25200
C485        C  0.21296551  0.41843470  0.53868740    -0.18600
C486        C  0.19860740  0.39278233  0.53193157    -0.07500
C487        C  0.24718862  0.44284104  0.55335180    -0.14000
C488        C  0.25805183  0.46416744  0.55943207    -0.13700
C489        C  0.26920780  0.48922286  0.56678607     0.25100
C490        C  0.30153969  0.01961507  0.56594371    -0.19100
C491        C  0.31041538  0.04439449  0.57288925    -0.07600
C492        C  0.28790511  0.04110366  0.58007662    -0.03700
C493        C  0.25671684  0.01208811  0.58032184    -0.09000
C494        C  0.25010995  0.48333193  0.57516503    -0.16600
H495        H  0.22918448  0.34319020  0.54097471     0.11500
H496        H  0.25424030  0.38824749  0.55287147     0.10800
H497        H  0.20817909  0.43926937  0.53806730     0.10800
H498        H  0.18272412  0.39400667  0.52621112     0.11300
H499        H  0.31891112  0.02280692  0.56033911     0.11300
H500        H  0.33459158  0.06641656  0.57249029     0.11300
H501        H  0.23882560  0.00863460  0.58577027     0.11400
H502        H  0.22754863  0.45962483  0.57629916     0.10300
C503        C  0.43032490  0.16947520  0.57824552    -0.03500
C504        C  0.46193781  0.17550478  0.58053104    -0.09300
C505        C  0.48479096  0.18378077  0.57303368    -0.17000
C506        C  0.47647506  0.18621325  0.56314339     0.25200
C507        C  0.44469565  0.17894866  0.56074180    -0.18600
C508        C  0.42167267  0.17046363  0.56824362    -0.07500
C509        C  0.50138766  0.19883773  0.55563945    -0.14000
C510        C  0.02379892  0.21204627  0.54986429    -0.13700
C511        C  0.05184066  0.23024984  0.54350470     0.25100
C512        C  0.05446379  0.21608648  0.53488246    -0.19100
C513        C  0.08189228  0.23397248  0.52879069    -0.07600
C514        C  0.10680729  0.26637574  0.53121302    -0.03700
C515        C  0.10412558  0.28026633  0.53991239    -0.09000
C516        C  0.07677381  0.26234860  0.54600472    -0.16600
H517        H  0.46931349  0.17467335  0.58814281     0.11500
H518        H  0.50928870  0.18933394  0.57498560     0.10800
H519        H  0.43800013  0.18083059  0.55310915     0.10800
H520        H  0.39753686  0.16592434  0.56624383     0.11300
H521        H  0.03543843  0.19119120  0.53290242     0.11300
H522        H  0.08381254  0.22241084  0.52224518     0.11300
H523        H  0.12310943  0.30510764  0.54195029     0.11400
H524        H  0.07507558  0.27353002  0.55267297     0.10300
C525        C  0.28374360  0.16391664  0.57853507    -0.03500
C526        C  0.30469474  0.18135032  0.57048185    -0.09300
C527        C  0.29559385  0.19731581  0.56299339    -0.17000
C528        C  0.26557967  0.19623444  0.56348963     0.25200
C529        C  0.24482266  0.17939147  0.57153606    -0.18600
C530        C  0.25376361  0.16328168  0.57899460    -0.07500
C531        C  0.25566218  0.21198578  0.55573907    -0.14000
C532        C  0.24537651  0.22434588  0.54958667    -0.13700
C533        C  0.23075264  0.23826296  0.54280786     0.25100
C534        C  0.19739329  0.22705922  0.54355787    -0.19100
C535        C  0.18317146  0.24160586  0.53740607    -0.07600
C536        C  0.20209429  0.26724171  0.53036692    -0.03700
C537        C  0.23546616  0.27815543  0.52952342    -0.09000
C538        C  0.24975574  0.26370300  0.53573521    -0.16600
H539        H  0.32782975  0.18211709  0.56986935     0.11500
H540        H  0.31183054  0.21025253  0.55678894     0.10800
H541        H  0.22156001  0.17846133  0.57200434     0.10800
H542        H  0.23710863  0.15018194  0.58509412     0.11300
H543        H  0.18248732  0.20746465  0.54901619     0.11300
H544        H  0.15743515  0.23307124  0.53818037     0.11300
H545        H  0.25052471  0.29836675  0.52424643     0.11400
H546        H  0.27563361  0.27271569  0.53513679     0.10300
C547        C  0.20624809  0.37454036  0.50991854    -0.03500
C548        C  0.23884225  0.39844049  0.51199715    -0.09300
C549        C  0.25451072  0.42936125  0.50659947    -0.17000
C550        C  0.23786684  0.43657002  0.49901426     0.25200
C551        C  0.20559206  0.41257794  0.49679950    -0.18600
C552        C  0.18991375  0.38168174  0.50219250    -0.07500
C553        C  0.25377056  0.46847816  0.49347620    -0.14000
C554        C  0.26637258  0.49491467  0.48868749    -0.13700
C555        C  0.28092732  0.02749856  0.48325386     0.25100
C556        C  0.26323123  0.03166496  0.47538236    -0.19100
C557        C  0.27743256  0.06123667  0.46934589    -0.07600
C558        C  0.30967756  0.08682095  0.47104562    -0.03700
C559        C  0.32700381  0.08286805  0.47910445    -0.09000
C560        C  0.31274314  0.05331061  0.48515788    -0.16600
H561        H  0.25218541  0.39311206  0.51775643     0.11500
H562        H  0.27956946  0.44759715  0.50833179     0.10800
H563        H  0.19250968  0.41780119  0.49092241     0.10800
H564        H  0.16486202  0.36351970  0.50042977     0.11300
H565        H  0.23852546  0.01196681  0.47387457     0.11300
H566        H  0.26329840  0.06408005  0.46333302     0.11300
H567        H  0.35182376  0.10235594  0.48057912     0.11400
H568        H  0.32664570  0.05043260  0.49124378     0.10300
C569        C  0.40721985  0.18419843  0.47041324    -0.03500
C570        C  0.41224175  0.20741031  0.47758500    -0.09300
C571        C  0.44110357  0.22190269  0.48310783    -0.17000
C572        C  0.46490678  0.21296153  0.48156128     0.25200
C573        C  0.45954165  0.18907998  0.47460924    -0.18600
C574        C  0.43078156  0.17468794  0.46906830    -0.07500
C575        C  0.49496466  0.22837025  0.48703552    -0.14000
C576        C  0.02027489  0.24072060  0.49156679    -0.13700
C577        C  0.05020789  0.25453125  0.49710689     0.25100
C578        C  0.07561131  0.24960947  0.49415604    -0.19100
C579        C  0.10405583  0.26154370  0.49984474    -0.07600
C580        C  0.10725008  0.27836008  0.50855636    -0.03700
C581        C  0.08213339  0.28428957  0.51126640    -0.09000
C582        C  0.05364702  0.27216343  0.50561629    -0.16600
H583        H  0.39422242  0.21491909  0.47871613     0.11500
H584        H  0.44499256  0.24027074  0.48850130     0.10800
H585        H  0.47770295  0.18181382  0.47341511     0.10800
H586        H  0.42700568  0.15638329  0.46366853     0.11300
H587        H  0.07321437  0.23609100  0.48755454     0.11300
H588        H  0.12317797  0.25686296  0.49758880     0.11300
H589        H  0.08443087  0.29802480  0.51780343     0.11400
H590        H  0.03421555  0.27629039  0.50792690     0.10300
C591        C  0.20358183  0.27572583  0.50774637    -0.03500
C592        C  0.19696109  0.24218400  0.50869247    -0.09300
C593        C  0.21384065  0.23146993  0.50292621    -0.17000
C594        C  0.23736576  0.25412140  0.49613849     0.25200
C595        C  0.24338910  0.28733354  0.49495977    -0.18600
C596        C  0.22643609  0.29805449  0.50071074    -0.07500
C597        C  0.25553867  0.24324669  0.49051578    -0.14000
C598        C  0.27002769  0.23280189  0.48600016    -0.13700
C599        C  0.28578013  0.21846750  0.48069392     0.25100
C600        C  0.30568687  0.23616808  0.47254681    -0.19100
C601        C  0.31954903  0.22133740  0.46711197    -0.07600
C602        C  0.31324601  0.18846239  0.46970030    -0.03700
C603        C  0.29404858  0.17127862  0.47805281    -0.09000
C604        C  0.28033436  0.18619074  0.48350886    -0.16600
H605        H  0.17901921  0.22444658  0.51396817     0.11500
H606        H  0.20882531  0.20564765  0.50384113     0.10800
H607        H  0.26146818  0.30502520  0.48970406     0.10800
H608        H  0.23185313  0.32402424  0.49988783     0.11300
H609        H  0.31025722  0.26126366  0.47034919     0.11300
H610        H  0.33508563  0.23548009  0.46087608     0.11300
H611        H  0.28902146  0.14600619  0.48021417     0.11400
H612        H  0.26505618  0.17233641  0.48982668     0.10300
C613        C  0.42359217  0.44055799  0.86504185    -0.03500
C614        C  0.42066917  0.41737839  0.87270954    -0.09300
C615        C  0.39369535  0.40311184  0.87901566    -0.17000
C616        C  0.36953592  0.41213604  0.87778527     0.25200
C617        C  0.37239897  0.43542967  0.87017394    -0.18600
C618        C  0.39934300  0.44961402  0.86382324    -0.07500
C619        C  0.34236066  0.39802182  0.88452041    -0.14000
C620        C  0.32064524  0.38623067  0.89053605    -0.13700
C621        C  0.29598306  0.37275208  0.89811659     0.25100
C622        C  0.26331618  0.36151976  0.89567122    -0.19100
C623        C  0.23967378  0.34968406  0.90311934    -0.07600
C624        C  0.24847936  0.34909867  0.91312341    -0.03700
C625        C  0.28129324  0.35979640  0.91547551    -0.09000
C626        C  0.30483449  0.37150837  0.90801898    -0.16600
H627        H  0.43921704  0.41022415  0.87377466     0.11500
H628        H  0.39179499  0.38522545  0.88489834     0.10800
H629        H  0.35398207  0.44280072  0.86920096     0.10800
H630        H  0.40069224  0.96790805  0.85799408     0.11300
H631        H  0.25618893  0.36233522  0.88802660     0.11300
H632        H  0.21465918  0.34170443  0.90106268     0.11300
H633        H  0.28890169  0.35961886  0.92309210     0.11400
H634        H  0.33003721  0.38004966  0.90999406     0.10300
C635        C  0.09892520  0.33461153  0.91292966    -0.03500
C636        C  0.06607482  0.32478017  0.91095439    -0.09300
C637        C  0.05798614  0.34263404  0.90384033    -0.17000
C638        C  0.08251254  0.37066050  0.89860457     0.25200
C639        C  0.11531006  0.38102640  0.90059879    -0.18600
C640        C  0.12349911  0.36309531  0.90770279    -0.07500
C641        C  0.07366248  0.38827462  0.89112999    -0.14000
C642        C  0.06415930  0.40153561  0.88500757    -0.13700
C643        C  0.05071503  0.41615612  0.87800159     0.25100
C644        C  0.05746398  0.44936260  0.87894251    -0.19100
C645        C  0.04277676  0.46286493  0.87254658    -0.07600
C646        C  0.02138808  0.44339820  0.86508732    -0.03700
C647        C  0.51494185  0.41024574  0.86409750    -0.09000
C648        C  0.02954662  0.39667576  0.87052938    -0.16600
H649        H  0.04652911  0.30294909  0.91479777     0.11500
H650        H  0.03252628  0.33438301  0.90236493     0.10800
H651        H  0.13452105  0.40275654  0.89661097     0.10800
H652        H  0.14901965  0.37140629  0.90905578     0.11300
H653        H  0.07369607  0.46464132  0.88470729     0.11300
H654        H  0.04463376  0.98818397  0.87435411     0.11300
H655        H  0.49820812  0.39471423  0.85846700     0.11400
H656        H  0.02395248  0.37086744  0.86977535     0.10300
C657        C  0.10840895  0.21488910  0.91184191    -0.03500
C658        C  0.12925634  0.22321828  0.90365739    -0.09300
C659        C  0.12125261  0.20033620  0.89614368    -0.17000
C660        C  0.09255485  0.16889004  0.89680604     0.25200
C661        C  0.07227148  0.16015793  0.90504908    -0.18600
C662        C  0.08005989  0.18294099  0.91249784    -0.07500
C663        C  0.08284017  0.14553726  0.88900099    -0.14000
C664        C  0.07110441  0.12379718  0.88305210    -0.13700
C665        C  0.05410951  0.09604804  0.87663550     0.25100
C666        C  0.52158282  0.07158008  0.87867482    -0.19100
C667        C  0.50498957  0.04413516  0.87261069    -0.07600
C668        C  0.02067656  0.04104381  0.86440294    -0.03700
C669        C  0.05335671  0.06550812  0.86243523    -0.09000
C670        C  0.06993955  0.09297546  0.86849932    -0.16600
H671        H  0.15114649  0.24771629  0.90292156     0.11500
H672        H  0.13710629  0.20734935  0.88977363     0.10800
H673        H  0.05005909  0.13586487  0.90564246     0.10800
H674        H  0.06360717  0.17566797  0.91872163     0.11300
H675        H  0.50915270  0.07364259  0.88498602     0.11300
H676        H  0.47991555  0.02536872  0.87430116     0.11300
H677        H  0.06619301  0.06305599  0.85631144     0.11400
H678        H  0.09514121  0.11157511  0.86690727     0.10300
C679        C  0.22266081  0.35859602  0.78023889    -0.03500
C680        C  0.22405211  0.34429428  0.77144978    -0.09300
C681        C  0.25127881  0.36100400  0.76527158    -0.17000
C682        C  0.27747836  0.39234146  0.76776013     0.25200
C683        C  0.27611961  0.40715596  0.77640487    -0.18600
C684        C  0.24875815  0.39051095  0.78257363    -0.07500
C685        C  0.30556535  0.40900121  0.76137974    -0.14000
C686        C  0.32790713  0.42095268  0.75557896    -0.13700
C687        C  0.35257534  0.43276488  0.74803067     0.25100
C688        C  0.38520047  0.44373173  0.75051447    -0.19100
C689        C  0.40859372  0.45344303  0.74304792    -0.07600
C690        C  0.39950436  0.45209815  0.73301000    -0.03700
C691        C  0.36671098  0.44142311  0.73063192    -0.09000
C692        C  0.34349677  0.43187726  0.73808141    -0.16600
H693        H  0.20420457  0.32006787  0.76936893     0.11500
H694        H  0.25193262  0.34941164  0.75855797     0.10800
H695        H  0.29609950  0.43158497  0.77835180     0.10800
H696        H  0.24786385  0.40274074  0.78910375     0.11300
H697        H  0.39245512  0.44432066  0.75820148     0.11300
H698        H  0.43357501  0.46131794  0.74512053     0.11300
H699        H  0.35883479  0.44004672  0.72299275     0.11400
H700        H  0.31831604  0.42330827  0.73606805     0.10300
C701        C  0.12606801  0.35662187  0.77992405    -0.03500
C702        C  0.09405358  0.34941148  0.78177795    -0.09300
C703        C  0.07820858  0.36070573  0.77504563    -0.17000
C704        C  0.09393889  0.37861181  0.76630286     0.25200
C705        C  0.12571347  0.38571660  0.76440490    -0.18600
C706        C  0.14170235  0.37488516  0.77117533    -0.07500
C707        C  0.07782612  0.38980916  0.75919166    -0.14000
C708        C  0.06704670  0.40105181  0.75285515    -0.13700
C709        C  0.05773679  0.41730047  0.74510114     0.25100
C710        C  0.07999826  0.43645294  0.73757486    -0.19100
C711        C  0.07251186  0.45482445  0.73047500    -0.07600
C712        C  0.04262721  0.45441583  0.73083528    -0.03700
C713        C  0.01988758  0.43409916  0.73823064    -0.09000
C714        C  0.02744115  0.41567954  0.74532469    -0.16600
H715        H  0.08112375  0.33455895  0.78832630     0.11500
H716        H  0.05358422  0.35503408  0.77657936     0.10800
H717        H  0.13810458  0.39953742  0.75766044     0.10800
H718        H  0.16628725  0.38062562  0.76954775     0.11300
H719        H  0.10353101  0.43788116  0.73734115     0.11300
H720        H  0.09056792  0.47016048  0.72489640     0.11300
H721        H  0.99661125  0.43310995  0.73869521     0.11400
H722        H  0.01001381  0.40088738  0.75111542     0.10300
C723        C  0.03791866  0.07636853  0.73575469    -0.03500
C724        C  0.01670759  0.08869484  0.73759212    -0.09300
C725        C  0.02485954  0.11313344  0.74461771    -0.17000
C726        C  0.05408501  0.12520846  0.74994548     0.25200
C727        C  0.07490555  0.11248386  0.74831954    -0.18600
C728        C  0.06696052  0.08831713  0.74126291    -0.07500
C729        C  0.06371606  0.15166931  0.75678474    -0.14000
C730        C  0.07466246  0.17478662  0.76228467    -0.13700
C731        C  0.09085225  0.20319461  0.76851852     0.25100
C732        C  0.12499088  0.22205519  0.76858496    -0.19100
C733        C  0.14111577  0.24986984  0.77452707    -0.07600
C734        C  0.12324757  0.25893899  0.78049509    -0.03700
C735        C  0.08903631  0.23994048  0.78047381    -0.09000
C736        C  0.07286486  0.21216422  0.77447944    -0.16600
H737        H  0.99427223  0.08010717  0.73342499     0.11500
H738        H  0.00864071  0.12294359  0.74578569     0.10800
H739        H  0.09759127  0.12166876  0.75239746     0.10800
H740        H  0.08370113  0.07918964  0.74006255     0.11300
H741        H  0.13914263  0.21524532  0.76403885     0.11300
H742        H  0.16749657  0.26397717  0.77458905     0.11300
H743        H  0.07496553  0.24680966  0.78503251     0.11400
H744        H  0.04645041  0.19777370  0.77447977     0.10300
C745        C  0.02224831  0.44674238  0.84223594    -0.03500
C746        C  0.05446221  0.45467855  0.84444289    -0.09300
C747        C  0.07035027  0.44279608  0.83867403    -0.17000
C748        C  0.05451388  0.42340317  0.83051455     0.25200
C749        C  0.02274728  0.41617005  0.82810653    -0.18600
C750        C  0.00672895  0.42785156  0.83392203    -0.07500
C751        C  0.07087570  0.41087364  0.82466398    -0.14000
C752        C  0.08469433  0.40016360  0.81990739    -0.13700
C753        C  0.10077039  0.38664132  0.81433913     0.25100
C754        C  0.11831610  0.40382324  0.80575700    -0.19100
C755        C  0.13292642  0.38996157  0.80019897    -0.07600
C756        C  0.12949788  0.35828429  0.80301951    -0.03700
C757        C  0.11320740  0.34216058  0.81191939    -0.09000
C758        C  0.09874538  0.35606646  0.81748761    -0.16600
H759        H  0.06742444  0.47019510  0.85059834     0.11500
H760        H  0.09501563  0.44880322  0.84056461     0.10800
H761        H  0.01029199  0.40132649  0.82177915     0.10800
H762        H  0.98202615  0.42167229  0.83202579     0.11300
H763        H  0.12054796  0.42782177  0.80332910     0.11300
H764        H  0.14663905  0.40389868  0.79365172     0.11300
H765        H  0.11105695  0.31850342  0.81454230     0.11400
H766        H  0.08568972  0.34276471  0.82420250     0.10300
C767        C  0.22281625  0.35034167  0.80306190    -0.03500
C768        C  0.22768297  0.37026673  0.81118374    -0.09300
C769        C  0.25616718  0.38205601  0.81688306    -0.17000
C770        C  0.27998545  0.37381003  0.81458830     0.25200
C771        C  0.27486285  0.35320779  0.80664682    -0.18600
C772        C  0.24640557  0.34142423  0.80094407    -0.07500
C773        C  0.30983150  0.38693364  0.82028077    -0.14000
C774        C  0.33486495  0.39851892  0.82502733    -0.13700
C775        C  0.36466604  0.41281751  0.83076214     0.25100
C776        C  0.36821042  0.39411959  0.83873941    -0.19100
C777        C  0.39680350  0.40820050  0.84442123    -0.07600
C778        C  0.42212722  0.44134653  0.84226413    -0.03700
C779        C  0.41868463  0.45974108  0.83414150    -0.09000
C780        C  0.39009304  0.44560701  0.82844863    -0.16600
H781        H  0.20978161  0.37732542  0.81297489     0.11500
H782        H  0.25976091  0.39788217  0.82302028     0.10800
H783        H  0.29294803  0.34643598  0.80482134     0.10800
H784        H  0.24286310  0.32549294  0.79484225     0.11300
H785        H  0.34884544  0.36867429  0.84058250     0.11300
H786        H  0.39915089  0.39318527  0.85049445     0.11300
H787        H  0.43633996  0.98707241  0.83285314     0.11400
H788        H  0.38772335  0.46034716  0.82229018     0.10300
C789        C  0.01760250  0.04336148  0.84174431    -0.03500
C790        C  0.03950015  0.04810077  0.83421057    -0.09300
C791        C  0.05427949  0.07824531  0.82843341    -0.17000
C792        C  0.04704251  0.10378160  0.83006689     0.25200
C793        C  0.02477815  0.09894362  0.83746869    -0.18600
C794        C  0.01009371  0.06886647  0.84327655    -0.07500
C795        C  0.06271667  0.13504168  0.82422142    -0.14000
C796        C  0.07614410  0.16135702  0.81939738    -0.13700
C797        C  0.09235381  0.19296607  0.81373419     0.25100
C798        C  0.08315392  0.21733934  0.81481241    -0.19100
C799        C  0.09885337  0.24803629  0.80932600    -0.07600
C800        C  0.12409594  0.25481971  0.80277998    -0.03700
C801        C  0.13316253  0.23024831  0.80168456    -0.09000
C802        C  0.11733420  0.19944896  0.80712976    -0.16600
H803        H  0.04568445  0.02877466  0.83295155     0.11500
H804        H  0.07149826  0.08172671  0.82273962     0.10800
H805        H  0.01891120  0.11846893  0.83878270     0.10800
H806        H  0.49296807  0.06549646  0.84897333     0.11300
H807        H  0.06364931  0.21249168  0.81982299     0.11300
H808        H  0.09057193  0.26594487  0.80997195     0.11300
H809        H  0.15247879  0.23495365  0.79661839     0.11400
H810        H  0.12458468  0.18073775  0.80619917     0.10300
C811        C  0.44707388  0.38988123  0.24310417    -0.03500
C812        C  0.41531719  0.38144844  0.24009365    -0.09300
C813        C  0.40029627  0.35980334  0.23229204    -0.17000
C814        C  0.41702922  0.34679024  0.22737163     0.25200
C815        C  0.44890625  0.35583000  0.23015970    -0.18600
C816        C  0.46381593  0.37715319  0.23796661    -0.07500
C817        C  0.40102048  0.32233604  0.21993237    -0.14000
C818        C  0.38793579  0.29969187  0.21430398    -0.13700
C819        C  0.37175765  0.27034289  0.20844807     0.25100
C820        C  0.38954311  0.26283411  0.20192822    -0.19100
C821        C  0.37389361  0.23298218  0.19678210    -0.07600
C822        C  0.34041111  0.21044811  0.19816485    -0.03700
C823        C  0.32270566  0.21833180  0.20459228    -0.09000
C824        C  0.33830399  0.24812753  0.20971785    -0.16600
H825        H  0.40185068  0.39082808  0.24392425     0.11500
H826        H  0.37548056  0.35272412  0.23022568     0.10800
H827        H  0.46203022  0.34582781  0.22642893     0.10800
H828        H  0.48842340  0.38343632  0.24003639     0.11300
H829        H  0.41548487  0.27979064  0.20092194     0.11300
H830        H  0.38784126  0.22729417  0.19178712     0.11300
H831        H  0.29674115  0.20177993  0.20550133     0.11400
H832        H  0.32432763  0.25371677  0.21473275     0.10300
C833        C  0.34098057  0.11124384  0.19937755    -0.03500
C834        C  0.33288513  0.07757381  0.19824800    -0.09300
C835        C  0.34767357  0.06309688  0.20421054    -0.17000
C836        C  0.37070533  0.08213595  0.21134969     0.25200
C837        C  0.37901898  0.11579182  0.21245557    -0.18600
C838        C  0.36410683  0.13023019  0.20653331    -0.07500
C839        C  0.38489183  0.06690030  0.21782103    -0.14000
C840        C  0.39656217  0.05525094  0.22373783    -0.13700
C841        C  0.41061886  0.04360613  0.23145457     0.25100
C842        C  0.41870022  0.05939532  0.24049510    -0.19100
C843        C  0.43263471  0.04880782  0.24805079    -0.07600
C844        C  0.43891988  0.02228142  0.24667853    -0.03700
C845        C  0.43150293  0.50656386  0.23708123    -0.09000
C846        C  0.41642965  0.01694181  0.23001231    -0.16600
H847        H  0.31475775  0.06237417  0.19286007     0.11500
H848        H  0.34087372  0.03698351  0.20333430     0.10800
H849        H  0.39675505  0.13074599  0.21797097     0.10800
H850        H  0.37069980  0.15624233  0.20749530     0.11300
H851        H  0.41432801  0.08003866  0.24169953     0.11300
H852        H  0.43881811  0.06171411  0.25494446     0.11300
H853        H  0.43465129  0.48510855  0.23594046     0.11400
H854        H  0.41020558  0.50434572  0.22266486     0.10300
C855        C  0.24508213  0.10725852  0.20122933    -0.03500
C856        C  0.24491501  0.12275486  0.20991157    -0.09300
C857        C  0.21915831  0.10632432  0.21662466    -0.17000
C858        C  0.19332171  0.07404213  0.21479625     0.25200
C859        C  0.19359840  0.05799359  0.20628989    -0.18600
C860        C  0.21947683  0.07438515  0.19958160    -0.07500
C861        C  0.16667892  0.05753796  0.22169303    -0.14000
C862        C  0.14481298  0.04449097  0.22764437    -0.13700
C863        C  0.11918915  0.02915791  0.23490718     0.25100
C864        C  0.09136537  0.03238720  0.23380135    -0.19100
C865        C  0.06849815  0.51822617  0.24090494    -0.07600
C866        C  0.06863220  0.99799549  0.24897464    -0.03700
C867        C  0.09697913  0.99537444  0.25008023    -0.09000
C868        C  0.12203263  0.01084156  0.24309368    -0.16600
H869        H  0.26452175  0.14768051  0.21149996     0.11500
H870        H  0.21935459  0.11885495  0.22323126     0.10800
H871        H  0.17388809  0.03282666  0.20485678     0.10800
H872        H  0.21954423  0.06135302  0.19313212     0.11300
H873        H  0.09165439  0.54863979  0.22775891     0.11300
H874        H  0.04811382  0.52271122  0.24019489     0.11300
H875        H  0.09961372  0.98088814  0.25625709     0.11400
H876        H  0.14349099  0.00822994  0.24402931     0.10300
C877        C  0.11946969  0.33362593  0.35145744    -0.03500
C878        C  0.08662731  0.32561015  0.35091082    -0.09300
C879        C  0.07646931  0.34117118  0.34363818    -0.17000
C880        C  0.09894822  0.36495199  0.33683562     0.25200
C881        C  0.13173171  0.37347178  0.33738711    -0.18600
C882        C  0.14198143  0.35795850  0.34465687    -0.07500
C883        C  0.08813600  0.37968452  0.32907157    -0.14000
C884        C  0.07889206  0.39099050  0.32231903    -0.13700
C885        C  0.06787121  0.40330552  0.31396564     0.25100
C886        C  0.07204292  0.39587283  0.30439860    -0.19100
C887        C  0.06095375  0.40725634  0.29623338    -0.07600
C888        C  0.04561235  0.42637288  0.29753381    -0.03700
C889        C  0.04169864  0.43389937  0.30719316    -0.09000
C890        C  0.05270847  0.42233737  0.31535971    -0.16600
H891        H  0.06865919  0.30700523  0.35601931     0.11500
H892        H  0.05100990  0.33434566  0.34324581     0.10800
H893        H  0.14928865  0.39178947  0.33212253     0.10800
H894        H  0.16741225  0.36467582  0.34485389     0.11300
H895        H  0.08373141  0.38111994  0.30325121     0.11300
H896        H  0.06435445  0.40102405  0.28890652     0.11300
H897        H  0.02977264  0.44833452  0.30844981     0.11400
H898        H  0.04926841  0.42810199  0.32275051     0.10300
C899        C  0.04707691  0.06176711  0.29936867    -0.03500
C900        C  0.03608008  0.08235260  0.30319563    -0.09300
C901        C  0.05202899  0.10249468  0.31115478    -0.17000
C902        C  0.07924897  0.10252197  0.31542632     0.25200
C903        C  0.09045488  0.08209965  0.31173757    -0.18600
C904        C  0.07443306  0.06176609  0.30374418    -0.07500
C905        C  0.09538363  0.12395237  0.32353109    -0.14000
C906        C  0.10602687  0.14324748  0.33015995    -0.13700
C907        C  0.11527255  0.16696172  0.33783543     0.25100
C908        C  0.14635726  0.19565797  0.33790137    -0.19100
C909        C  0.15431788  0.21978253  0.34500438    -0.07600
C910        C  0.13116537  0.21547143  0.35210729    -0.03700
C911        C  0.10009261  0.18630904  0.35200945    -0.09000
C912        C  0.09224143  0.16230159  0.34491842    -0.16600
H913        H  0.51512235  0.08299841  0.30004134     0.11500
H914        H  0.04313433  0.11816497  0.31397081     0.10800
H915        H  0.11151823  0.08193183  0.31501587     0.10800
H916        H  0.08342581  0.04610978  0.30100060     0.11300
H917        H  0.16423084  0.19966077  0.33236971     0.11300
H918        H  0.17834665  0.24204806  0.34481474     0.11300
H919        H  0.08158610  0.18223475  0.35731070     0.11400
H920        H  0.06798525  0.14035423  0.34485909     0.10300
C921        C  0.26806218  0.35423678  0.34827931    -0.03500
C922        C  0.30226479  0.37165304  0.34925346    -0.09300
C923        C  0.32221025  0.38203501  0.34088349    -0.17000
C924        C  0.30834594  0.37516866  0.33142173     0.25200
C925        C  0.27438503  0.35721139  0.33036152    -0.18600
C926        C  0.25433633  0.34675466  0.33873278    -0.07500
C927        C  0.32914560  0.38773688  0.32284774    -0.14000
C928        C  0.34807747  0.39997582  0.31604146    -0.13700
C929        C  0.37256000  0.41627833  0.30846350     0.25100
C930        C  0.36810529  0.43429948  0.30047887    -0.19100
C931        C  0.39295797  0.45200259  0.29350142    -0.07600
C932        C  0.42259961  0.45187091  0.29443803    -0.03700
C933        C  0.42651451  0.43309428  0.30239287    -0.09000
C934        C  0.40169688  0.41551973  0.30935579    -0.16600
H935        H  0.31367592  0.37786491  0.35647337     0.11500
H936        H  0.34847807  0.39593832  0.34178781     0.10800
H937        H  0.26340231  0.35178527  0.32306618     0.10800
H938        H  0.22812813  0.33344501  0.33771356     0.11300
H939        H  0.34566864  0.43514729  0.29973994     0.11300
H940        H  0.38914364  0.46617155  0.28747033     0.11300
H941        H  0.44902364  0.43251445  0.30336745     0.11400
H942        H  0.40546606  0.40179930  0.31553597     0.10300
C943        C  0.30943337  0.08859385  0.44819091    -0.03500
C944        C  0.28902595  0.08808437  0.44039987    -0.09300
C945        C  0.27420809  0.06063368  0.43431535    -0.17000
C946        C  0.27972076  0.03348084  0.43594725     0.25200
C947        C  0.30009534  0.03377781  0.44369683    -0.18600
C948        C  0.31500773  0.06132359  0.44979676    -0.07500
C949        C  0.26565859  0.00620343  0.42933660    -0.14000
C950        C  0.25581817  0.48425704  0.42338267    -0.13700
C951        C  0.24635632  0.46042874  0.41575850     0.25100
C952        C  0.27053928  0.45926805  0.41038428    -0.19100
C953        C  0.26193377  0.43612908  0.40299984    -0.07600
C954        C  0.22890492  0.41372497  0.40088291    -0.03700
C955        C  0.20467349  0.41544050  0.40621981    -0.09000
C956        C  0.21340214  0.43871352  0.41362975    -0.16600
H957        H  0.28450126  0.10893588  0.43904481     0.11500
H958        H  0.25869993  0.06072128  0.42828388     0.10800
H959        H  0.30477076  0.01298754  0.44493287     0.10800
H960        H  0.33116461  0.06158624  0.45566081     0.11300
H961        H  0.29611182  0.47616950  0.41193961     0.11300
H962        H  0.28122486  0.43566474  0.39900711     0.11300
H963        H  0.17904580  0.39863696  0.40474306     0.11400
H964        H  0.19451643  0.43963993  0.41772231     0.10300
C965        C  0.08619448  0.28377283  0.40101281    -0.03500
C966        C  0.09580599  0.28687791  0.41102633    -0.09300
C967        C  0.07240946  0.27582060  0.41856602    -0.17000
C968        C  0.03923972  0.26166022  0.41617409     0.25200
C969        C  0.02965856  0.25920715  0.40624527    -0.18600
C970        C  0.05286375  0.27014675  0.39873337    -0.07500
C971        C  0.51460267  0.24848587  0.42377716    -0.14000
C972        C  0.49202543  0.23583226  0.42950968    -0.13700
C973        C  0.46362207  0.21954582  0.43579433     0.25100
C974        C  0.43875151  0.18662812  0.43399284    -0.19100
C975        C  0.41082188  0.17093995  0.43993583    -0.07600
C976        C  0.40756032  0.18792522  0.44778833    -0.03700
C977        C  0.43240529  0.22110338  0.44948568    -0.09000
C978        C  0.46033342  0.23675744  0.44354617    -0.16600
H979        H  0.12123760  0.29714576  0.41302674     0.11500
H980        H  0.08012110  0.27782141  0.42623624     0.10800
H981        H  0.50411853  0.24830098  0.40429763     0.10800
H982        H  0.04454732  0.26734676  0.39112049     0.11300
H983        H  0.44091127  0.17312680  0.42797519     0.11300
H984        H  0.39189631  0.14542958  0.43846970     0.11300
H985        H  0.43005295  0.23500543  0.45534428     0.11400
H986        H  0.47922253  0.26233989  0.44495224     0.10300
C987        C  0.31113498  0.18657673  0.44693822    -0.03500
C988        C  0.32899211  0.20852640  0.43899835    -0.09300
C989        C  0.31436654  0.22141962  0.43238342    -0.17000
C990        C  0.28162584  0.21223136  0.43356622     0.25200
C991        C  0.26353987  0.19014504  0.44145074    -0.18600
C992        C  0.27823716  0.17730615  0.44811469    -0.07500
C993        C  0.26698129  0.22562496  0.42660861    -0.14000
C994        C  0.25712995  0.23842230  0.42045801    -0.13700
C995        C  0.24780500  0.25546447  0.41295021     0.25100
C996        C  0.22074512  0.25938535  0.41436817    -0.19100
C997        C  0.21269377  0.27735761  0.40727412    -0.07600
C998        C  0.23174264  0.29184038  0.39867021    -0.03700
C999        C  0.25865846  0.28735672  0.39725243    -0.09000
C1000       C  0.26657665  0.26924526  0.40434655    -0.16600
H1001       H  0.35432780  0.21579601  0.43795485     0.11500
H1002       H  0.32857015  0.23847066  0.42631295     0.10800
H1003       H  0.23813886  0.18274697  0.44241152     0.10800
H1004       H  0.26391210  0.15985950  0.45409526     0.11300
H1005       H  0.20611733  0.24893889  0.42101411     0.11300
H1006       H  0.19189658  0.28043562  0.40862849     0.11300
H1007       H  0.27379069  0.29811610  0.39071948     0.11400
H1008       H  0.28762049  0.26638844  0.40318552     0.10300
O1009       O  0.09838817  0.78555023  0.38446630    -0.81100
O1010       O  0.21695695  0.82933639  0.35646941    -0.65800
O1011       O  0.15536683  0.78795155  0.37744270    -1.12400
C1012       C  0.21946538  0.88820683  0.39351346     1.05800
O1013       O  0.26113134  0.85576376  0.36584275    -0.79000
O1014       O  0.24348607  0.82892263  0.38468375    -0.66500
Ni1015     Ni  0.10958508  0.76464265  0.37445110     1.34900
C1016       C  0.22350718  0.81242638  0.39165967     0.84600
O1017       O  0.16779848  0.76774928  0.35968188    -0.79500
O1018       O  0.11524892  0.74043186  0.36421412    -0.89800
C1019       C  0.24763983  0.84558863  0.35748769     0.84100
O1020       O  0.10988024  0.79705574  0.36501205    -0.68000
O1021       O  0.24252987  0.88624636  0.38953103    -0.87300
C1022       C  0.13142629  0.81794891  0.35899274     0.85000
C1023       C  0.13868504  0.74345599  0.35900449     1.06500
H1024       H  0.19975089  0.86506983  0.37055800     0.38300
O1025       O  0.20310613  0.84815217  0.37409362    -1.09900
O1026       O  0.19748637  0.81360843  0.39283658    -0.66600
Ni1027     Ni  0.17212768  0.82802417  0.38466313     1.26300
O1028       O  0.16046674  0.82326007  0.35896510    -0.66800
O1029       O  0.18964483  0.86893169  0.39140686    -0.79100
C1030       C  0.10956446  0.79255041  0.39319200     0.84300
O1031       O  0.13995207  0.80662583  0.39485238    -0.66300
Ni1032     Ni  0.24836102  0.86840756  0.37763100     1.27400
Ni1033     Ni  0.18569553  0.80814519  0.36676196     1.26100
H1034       H  0.15994212  0.77188286  0.38100404     0.38900
O1035       O  0.45540780  0.52219846  0.26279799    -0.81100
O1036       O  0.02286354  0.95692839  0.29002619    -0.65800
O1037       O  0.50312214  0.50702430  0.27016630    -1.12400
C1038       C  0.46119865  0.91060110  0.25171851     1.05800
O1039       O  0.03075375  0.92384699  0.28034460    -0.79000
O1040       O  0.04313750  0.95988535  0.26265832    -0.66500
Ni1041     Ni  0.48186324  0.53059893  0.27446553     1.34900
C1042       C  0.04088799  0.97900373  0.25590441     0.84600
O1043       O  0.03924099  0.52212932  0.28762304    -0.79500
O1044       O  0.00675044  0.54435728  0.28652040    -0.89800
C1045       C  0.03221346  0.93591873  0.28871531     0.84100
O1046       O  0.44579542  0.98946283  0.28135979    -0.68000
O1047       O  0.48562396  0.90967847  0.25550769    -0.87300
C1048       C  0.44888631  0.96994033  0.28775785     0.85000
C1049       C  0.03075154  0.54270395  0.29037835     1.06500
H1050       H  0.46666550  0.92734707  0.27602184     0.38300
O1051       O  0.48645256  0.94334159  0.27257291    -1.09900
O1052       O  0.01651146  0.48141269  0.25441051    -0.66600
Ni1053     Ni  0.47649927  0.96795021  0.26257174     1.26300
O1054       O  0.47511739  0.96869938  0.28869967    -0.66800
O1055       O  0.45095335  0.92915088  0.25496110    -0.79100
C1056       C  0.45561787  0.51229491  0.25421336     0.84300
O1057       O  0.46777623  0.49382261  0.25252315    -0.66300
Ni1058     Ni  0.00741096  0.91966781  0.26813950     1.27400
Ni1059     Ni  0.01253952  0.98173363  0.28038424     1.26100
H1060       H  0.02291312  0.52314977  0.26674751     0.38900
C1061       C  0.15795738  0.82377531  0.78247227     0.45300
H1062       H  0.15770777  0.82431965  0.77425564    -0.03700
C1063       C  0.15747780  0.82110530  0.80171681     0.45300
H1064       H  0.15740067  0.81953122  0.80993798    -0.03700
C1065       C  0.19230665  0.84025875  0.78704713    -0.17400
C1066       C  0.14137283  0.84183431  0.78685634    -0.17200
C1067       C  0.13975544  0.78777178  0.78704118    -0.17600
C1068       C  0.19207578  0.83827986  0.79725622    -0.17600
C1069       C  0.14159306  0.84095717  0.79709141    -0.17100
C1070       C  0.13919108  0.78630780  0.79715289    -0.17400
C1071       C  0.48672398  0.97673336  0.84376276     0.45300
H1072       H  0.48671642  0.97749629  0.83553815    -0.03700
C1073       C  0.48684407  0.97521932  0.86301766     0.45300
H1074       H  0.48680950  0.97453073  0.87124439    -0.03700
C1075       C  0.50311615  0.51109183  0.84819504    -0.17400
C1076       C  0.45232598  0.95774913  0.84832574    -0.17200
C1077       C  0.50508791  0.95965721  0.84854388    -0.17600
C1078       C  0.50368582  0.51000426  0.85836237    -0.17600
C1079       C  0.45256340  0.95698911  0.85849601    -0.17100
C1080       C  0.50492099  0.95878844  0.85873698    -0.17400
C1081       C  0.17221274  0.80843934  0.51040433     0.45300
H1082       H  0.17287960  0.81145680  0.50219519    -0.03700
C1083       C  0.17102089  0.80139045  0.52961915     0.45300
H1084       H  0.17067095  0.79841595  0.53783103    -0.03700
C1085       C  0.18997659  0.84214840  0.51557257    -0.17400
C1086       C  0.13749484  0.78990691  0.51479091    -0.17200
C1087       C  0.18855958  0.78852700  0.51451320    -0.17600
C1088       C  0.18929952  0.83833514  0.52573071    -0.17600
C1089       C  0.13700566  0.78599415  0.52496084    -0.17100
C1090       C  0.18758618  0.78461445  0.52465390    -0.17400
C1091       C  0.34389674  0.65445618  0.44957206     0.45300
H1092       H  0.34429588  0.65532025  0.44134733    -0.03700
C1093       C  0.34305329  0.65261023  0.46882455     0.45300
H1094       H  0.34286423  0.65194695  0.47704833    -0.03700
C1095       C  0.32695353  0.67219344  0.45376283    -0.17400
C1096       C  0.32591131  0.61851339  0.45427896    -0.17200
C1097       C  0.37799980  0.67132409  0.45425029    -0.17600
C1098       C  0.32665887  0.67148289  0.46393514    -0.17600
C1099       C  0.32546646  0.61745644  0.46446413    -0.17100
C1100       C  0.37750256  0.67008932  0.46441679    -0.17400
O1101       O  0.25957449  0.61647015  0.61140356    -0.81100
O1102       O  0.37741734  0.65438823  0.58437964    -0.65800
O1103       O  0.31441647  0.61439739  0.60505090    -1.12400
C1104       C  0.38148560  0.71793201  0.62033981     1.05800
O1105       O  0.41804677  0.67078986  0.59513126    -0.79000
O1106       O  0.40629818  0.66059975  0.61483119    -0.66500
Ni1107     Ni  0.26878256  0.59144442  0.60227726     1.34900
C1108       C  0.38392730  0.64122403  0.62089097     0.84600
O1109       O  0.32505727  0.59302891  0.58714449    -0.79500
O1110       O  0.27385656  0.56388843  0.59308048    -0.89800
C1111       C  0.40731171  0.66511955  0.58629069     0.84100
O1112       O  0.26908290  0.62112623  0.59181850    -0.68000
O1113       O  0.40460755  0.71949087  0.61525200    -0.87300
C1114       C  0.29119810  0.64337472  0.58618686     0.85000
C1115       C  0.29645741  0.56718141  0.58740149     1.06500
H1116       H  0.36045972  0.69043363  0.59844343     0.38300
O1117       O  0.36348800  0.67326200  0.60195520    -1.09900
O1118       O  0.35558066  0.63780586  0.62061427    -0.66600
Ni1119     Ni  0.33235475  0.65436296  0.61243185     1.26300
O1120       O  0.32082630  0.65047356  0.58668274    -0.66800
O1121       O  0.35173003  0.69493503  0.61951763    -0.79100
C1122       C  0.26917412  0.62098881  0.62033475     0.84300
O1123       O  0.29925784  0.63386978  0.62237977    -0.66300
Ni1124     Ni  0.40888781  0.69372342  0.60512784     1.27400
Ni1125     Ni  0.34480545  0.63358707  0.59440813     1.26100
H1126       H  0.31861673  0.59803845  0.60857130     0.38900
O1127       O  0.41139480  0.95426538  0.71594406    -0.81100
O1128       O  0.03563455  0.50033605  0.68949324    -0.65800
O1129       O  0.46945714  0.95687120  0.70963433    -1.12400
C1130       C  0.03331665  0.55294606  0.72746204     1.05800
O1131       O  0.07867222  0.52726752  0.69933073    -0.79000
O1132       O  0.05549917  0.99450082  0.71760067    -0.66500
Ni1133     Ni  0.42438623  0.93526092  0.70576769     1.34900
C1134       C  0.03470511  0.97693585  0.72430091     0.84600
O1135       O  0.48524566  0.93852770  0.69210616    -0.79500
O1136       O  0.43168888  0.91274588  0.69536288    -0.89800
C1137       C  0.06616184  0.51726498  0.69085644     0.84100
O1138       O  0.42749195  0.96991751  0.69663763    -0.68000
O1139       O  0.05647721  0.55010735  0.72392235    -0.87300
C1140       C  0.45040707  0.99054437  0.69092578     0.85000
C1141       C  0.45593206  0.91539366  0.69067640     1.06500
H1142       H  0.01681394  0.53475741  0.70370213     0.38300
O1143       O  0.01942194  0.51719644  0.70713112    -1.09900
O1144       O  0.00913559  0.97902336  0.72560286    -0.66600
Ni1145     Ni  0.48530710  0.99562650  0.71737653     1.26300
O1146       O  0.47901988  0.49467471  0.69129394    -0.66800
O1147       O  0.00405194  0.53567766  0.72452475    -0.79100
C1148       C  0.42133055  0.96023103  0.72483347     0.84300
O1149       O  0.45133474  0.97303011  0.72694393    -0.66300
Ni1150     Ni  0.06397520  0.53611419  0.71143811     1.27400
Ni1151     Ni  0.00220223  0.97814590  0.69961920     1.26100
H1152       H  0.47273236  0.93988042  0.71315250     0.38900
C1153       C  0.30881365  0.64412874  0.19760955     0.45300
H1154       H  0.31087096  0.64456840  0.20580909    -0.03700
C1155       C  0.30492046  0.64315352  0.17837251     0.45300
H1156       H  0.30357722  0.64315958  0.17015938    -0.03700
C1157       C  0.32370062  0.67931111  0.19246975    -0.17400
C1158       C  0.32622817  0.62745065  0.19301994    -0.17200
C1159       C  0.27356736  0.62463067  0.19374319    -0.17600
C1160       C  0.32185937  0.67882074  0.18233843    -0.17600
C1161       C  0.32433517  0.62702693  0.18288058    -0.17100
C1162       C  0.27138327  0.62474953  0.18353993    -0.17400
C1163       C  0.97448074  0.98856566  0.13674933     0.45300
H1164       H  0.97257409  0.98639143  0.14495523    -0.03700
C1165       C  0.97905455  0.99359281  0.11755548     0.45300
H1166       H  0.98099797  0.99556742  0.10935028    -0.03700
C1167       C  0.45767811  0.95427432  0.13181749    -0.17400
C1168       C  0.45904046  0.00833846  0.13176693    -0.17200
C1169       C  0.00984992  0.00651205  0.13300841    -0.17600
C1170       C  0.45999349  0.95709444  0.12166405    -0.17600
C1171       C  0.46144103  0.01086086  0.12160128    -0.17100
C1172       C  0.01217286  0.00912806  0.12285806    -0.17400
O1173       O  0.06938990  0.77761950  0.94454236    -0.81100
O1174       O  0.19400402  0.82691295  0.91868369    -0.65800
O1175       O  0.12731818  0.78050836  0.93809357    -1.12400
C1176       C  0.18969270  0.88006264  0.95568424     1.05800
O1177       O  0.23294156  0.84138327  0.92994012    -0.79000
O1178       O  0.21725629  0.82506429  0.94932832    -0.66500
Ni1179     Ni  0.08219250  0.75827487  0.93442054     1.34900
C1180       C  0.19404070  0.80452140  0.95496661     0.84600
O1181       O  0.14259342  0.76469528  0.91987321    -0.79500
O1182       O  0.08973592  0.73563824  0.92414494    -0.89800
C1183       C  0.22377564  0.83847961  0.92093441     0.84100
O1184       O  0.08443988  0.79214820  0.92513729    -0.68000
O1185       O  0.21398424  0.88270719  0.95098663    -0.87300
C1186       C  0.10734896  0.81504872  0.91985856     0.85000
C1187       C  0.11370296  0.73998069  0.91893798     1.06500
H1188       H  0.17344937  0.85812855  0.93318427     0.38300
O1189       O  0.17619545  0.84038187  0.93642019    -1.09900
O1190       O  0.16566802  0.80093939  0.95440120    -0.66600
Ni1191     Ni  0.14321344  0.81845962  0.94627420     1.26300
O1192       O  0.13663228  0.82102401  0.92040925    -0.66800
O1193       O  0.16028821  0.85722575  0.95415118    -0.79100
C1194       C  0.07894464  0.78217249  0.95349243     0.84300
O1195       O  0.10890506  0.79515295  0.95565276    -0.66300
Ni1196     Ni  0.22100020  0.86051342  0.94037175     1.27400
Ni1197     Ni  0.15978806  0.80293767  0.92805197     1.26100
H1198       H  0.13109382  0.76349288  0.94136904     0.38900
O1199       O  0.23054621  0.62577026  0.05161547    -0.81100
O1200       O  0.34675185  0.67100663  0.02303376    -0.65800
O1201       O  0.28479674  0.62485965  0.04375961    -1.12400
C1202       C  0.35308003  0.72158482  0.06163538     1.05800
O1203       O  0.38928787  0.68695323  0.03303992    -0.79000
O1204       O  0.37559685  0.66399625  0.05206216    -0.66500
Ni1205     Ni  0.23898168  0.60413805  0.04111101     1.34900
C1206       C  0.35428978  0.64415078  0.05832489     0.84600
O1207       O  0.29436814  0.60929586  0.02481475    -0.79500
O1208       O  0.24294100  0.57987351  0.03057224    -0.89800
C1209       C  0.37718566  0.68343653  0.02437704     0.84100
O1210       O  0.23948154  0.63732308  0.03181747    -0.68000
O1211       O  0.37576172  0.72225085  0.05656550    -0.87300
C1212       C  0.26172643  0.66023478  0.02635826     0.85000
C1213       C  0.26528486  0.58433817  0.02458260     1.06500
H1214       H  0.33145295  0.70251730  0.03898626     0.38300
O1215       O  0.33425020  0.68421757  0.04174496    -1.09900
O1216       O  0.32709919  0.64307178  0.05931062    -0.66600
Ni1217     Ni  0.30349357  0.66205100  0.05225734     1.26300
O1218       O  0.29107046  0.66645154  0.02660488    -0.66800
O1219       O  0.32298630  0.70042698  0.06034859    -0.79100
C1220       C  0.24096909  0.62783379  0.06045898     0.84300
O1221       O  0.27092564  0.63849928  0.06217475    -0.66300
Ni1222     Ni  0.37960193  0.70267054  0.04475481     1.27400
Ni1223     Ni  0.31487139  0.64720503  0.03314201     1.26100
H1224       H  0.28859742  0.60724603  0.04654122     0.38900
C1225       C  0.25296714  0.67960560  0.01899914    -0.03500
C1226       C  0.22035115  0.67196156  0.01777156    -0.09300
C1227       C  0.21171584  0.68747094  0.01001798    -0.17000
C1228       C  0.23553560  0.71082375  0.00342251     0.25200
C1229       C  0.26812828  0.71939768  0.00477983    -0.18600
C1230       C  0.27682500  0.70398196  0.01250675    -0.07500
C1231       C  0.22662386  0.72518127  0.99503595    -0.14000
C1232       C  0.22025124  0.73736553  0.98780876    -0.13700
C1233       C  0.21329888  0.75248457  0.97918754     0.25100
C1234       C  0.23819533  0.77324602  0.97249168    -0.19100
C1235       C  0.23178844  0.78931865  0.96437988    -0.07600
C1236       C  0.20032968  0.78480737  0.96287671    -0.03700
C1237       C  0.17529989  0.76313602  0.96952428    -0.09000
C1238       C  0.18178460  0.74715562  0.97761777    -0.16600
H1239       H  0.20135885  0.65329278  0.02261083     0.11500
H1240       H  0.18639448  0.68070047  0.00904029     0.10800
H1241       H  0.28676002  0.73748191  0.99972595     0.10800
H1242       H  0.30213357  0.71047880  0.01320556     0.11300
H1243       H  0.26269121  0.77748985  0.97363860     0.11300
H1244       H  0.25162071  0.80588111  0.95943808     0.11300
H1245       H  0.15081791  0.75912450  0.96862409     0.11400
H1246       H  0.16233008  0.73110644  0.98274651     0.10300
C1247       C  0.19635623  0.90432936  0.96348289    -0.03500
C1248       C  0.17127734  0.90043878  0.96974151    -0.09300
C1249       C  0.17823248  0.92220187  0.97748845    -0.17000
C1250       C  0.21026003  0.94810463  0.97905508     0.25200
C1251       C  0.23520742  0.95248831  0.97278287    -0.18600
C1252       C  0.22836296  0.93080537  0.96505890    -0.07500
C1253       C  0.21791967  0.96996877  0.98717478    -0.14000
C1254       C  0.22579934  0.98884919  0.99389378    -0.13700
C1255       C  0.23698128  0.51358786  0.00161347     0.25100
C1256       C  0.26669691  0.54399931  0.00093780    -0.19100
C1257       C  0.27643876  0.56678060  0.00852420    -0.07600
C1258       C  0.25641593  0.55940630  0.01685502    -0.03700
C1259       C  0.22681587  0.52850793  0.01750893    -0.09000
C1260       C  0.21723018  0.50576021  0.00994625    -0.16600
H1261       H  0.14641445  0.88025385  0.96876915     0.11500
H1262       H  0.15872830  0.91859718  0.98231223     0.10800
H1263       H  0.26006907  0.97248146  0.97392925     0.10800
H1264       H  0.24827110  0.93457456  0.96040140     0.11300
H1265       H  0.28216716  0.55024680  0.99450477     0.11300
H1266       H  0.29923940  0.59042289  0.00776603     0.11300
H1267       H  0.21088629  0.52198860  0.02383420     0.11400
H1268       H  0.19425505  0.48222399  0.01055433     0.10300
C1269       C  0.39941496  0.69359882  0.01575366    -0.03500
C1270       C  0.43343139  0.71010654  0.01723151    -0.09300
C1271       C  0.45473436  0.72101189  0.00918005    -0.17000
C1272       C  0.44247802  0.71559506  0.99951641     0.25200
C1273       C  0.40869249  0.69901863  0.99793895    -0.18600
C1274       C  0.38725892  0.68812212  0.00600212    -0.07500
C1275       C  0.46474804  0.72735858  0.99127342    -0.14000
C1276       C  0.98423316  0.73774560  0.98458774    -0.13700
C1277       C  0.00809114  0.75007093  0.97677001     0.25100
C1278       C  0.99812088  0.74684667  0.96685773    -0.19100
C1279       C  0.02121541  0.75797099  0.95927144    -0.07600
C1280       C  0.05467264  0.77250075  0.96150297    -0.03700
C1281       C  0.06448765  0.77607341  0.97149557    -0.09000
C1282       C  0.04133363  0.76490437  0.97906644    -0.16600
H1283       H  0.44368699  0.71496873  0.02462115     0.11500
H1284       H  0.48081382  0.73384948  0.01049789     0.10800
H1285       H  0.39892847  0.69468918  0.99048216     0.10800
H1286       H  0.36125160  0.67560095  0.00460312     0.11300
H1287       H  0.97246439  0.73541922  0.96499085     0.11300
H1288       H  0.01281018  0.75474809  0.95166673     0.11300
H1289       H  0.09000853  0.78702036  0.97347490     0.11400
H1290       H  0.04934409  0.76753484  0.98671420     0.10300
C1291       C  0.44548570  0.92859007  0.11494870    -0.03500
C1292       C  0.45205849  0.90190827  0.11614576    -0.09300
C1293       C  0.43807273  0.87520303  0.10972219    -0.17000
C1294       C  0.41751111  0.87500470  0.10204036     0.25200
C1295       C  0.41125046  0.90179868  0.10074467    -0.18600
C1296       C  0.42527305  0.92852973  0.10714736    -0.07500
C1297       C  0.40326778  0.84754682  0.09541622    -0.14000
C1298       C  0.39251970  0.82471386  0.08981246    -0.13700
C1299       C  0.38208419  0.79811895  0.08296743     0.25100
C1300       C  0.40553195  0.79460744  0.07792729    -0.19100
C1301       C  0.39598302  0.76937123  0.07113901    -0.07600
C1302       C  0.36270397  0.74713276  0.06925482    -0.03700
C1303       C  0.33919499  0.75052268  0.07446281    -0.09000
C1304       C  0.34887233  0.77593411  0.08127115    -0.16600
H1305       H  0.46804492  0.90183756  0.12201838     0.11500
H1306       H  0.44331915  0.85474767  0.11073390     0.10800
H1307       H  0.39554609  0.90202065  0.09479677     0.10800
H1308       H  0.42005053  0.94899642  0.10609520     0.11300
H1309       H  0.43128784  0.81156477  0.07919674     0.11300
H1310       H  0.41478369  0.76751877  0.06730439     0.11300
H1311       H  0.31340425  0.73388334  0.07318590     0.11400
H1312       H  0.33049904  0.77841403  0.08515213     0.10300
C1313       C  0.36210640  0.62245972  0.06506608    -0.03500
C1314       C  0.38999943  0.61977912  0.06347101    -0.09300
C1315       C  0.39951907  0.60265883  0.07044557    -0.17000
C1316       C  0.38138678  0.58799879  0.07912306     0.25200
C1317       C  0.35292354  0.58940738  0.08059649    -0.18600
C1318       C  0.34325296  0.60637635  0.07360860    -0.07500
C1319       C  0.39296419  0.57315780  0.08672225    -0.14000
C1320       C  0.40395919  0.56216037  0.09310506    -0.13700
C1321       C  0.41856851  0.55001701  0.10054250     0.25100
C1322       C  0.40070280  0.53064997  0.10886211    -0.19100
C1323       C  0.41479010  0.51810203  0.11587457    -0.07600
C1324       C  0.44706115  0.52510866  0.11469164    -0.03700
C1325       C  0.46489016  0.54488904  0.10639027    -0.09000
C1326       C  0.45076705  0.55725843  0.09937822    -0.16600
H1327       H  0.40495826  0.63164940  0.05695432     0.11500
H1328       H  0.42152589  0.60164713  0.06919090     0.10800
H1329       H  0.33865018  0.57814740  0.08727183     0.10800
H1330       H  0.32168896  0.60796081  0.07508453     0.11300
H1331       H  0.37573191  0.52477570  0.10984156     0.11300
H1332       H  0.39911510  0.00069733  0.12164373     0.11300
H1333       H  0.98975526  0.55057967  0.10528743     0.11400
H1334       H  0.46488330  0.57221313  0.09299080     0.10300
C1335       C  0.04301954  0.02518980  0.11717414    -0.03500
C1336       C  0.04639795  0.00811853  0.10937531    -0.09300
C1337       C  0.07451542  0.02352137  0.10355695    -0.17000
C1338       C  0.09893478  0.55464306  0.10464368     0.25200
C1339       C  0.09648145  0.57172095  0.11258801    -0.18600
C1340       C  0.06846805  0.55652883  0.11850087    -0.07500
C1341       C  0.12680123  0.57066704  0.09817317    -0.14000
C1342       C  0.14854725  0.58285154  0.09216784    -0.13700
C1343       C  0.17249868  0.59587460  0.08438159     0.25100
C1344       C  0.16388908  0.60226927  0.07487068    -0.19100
C1345       C  0.18635927  0.61325211  0.06712355    -0.07600
C1346       C  0.21789376  0.61819925  0.06879850    -0.03700
C1347       C  0.22654508  0.61224177  0.07842163    -0.09000
C1348       C  0.20391221  0.60101170  0.08615571    -0.16600
H1349       H  0.02717163  0.98288438  0.10776459     0.11500
H1350       H  0.07652926  0.01009420  0.09749248     0.10800
H1351       H  0.11594365  0.59692755  0.11410852     0.10800
H1352       H  0.06659155  0.57035435  0.12447024     0.11300
H1353       H  0.13961779  0.59829815  0.07340817     0.11300
H1354       H  0.17894987  0.61760711  0.05980575     0.11300
H1355       H  0.25053210  0.61551203  0.07992092     0.11400
H1356       H  0.21077375  0.59593684  0.09347647     0.10300
C1357       C  0.34140603  0.61484065  0.17670016    -0.03500
C1358       C  0.32411691  0.59106019  0.16955400    -0.09300
C1359       C  0.33978661  0.57842017  0.16399466    -0.17000
C1360       C  0.37297007  0.58957820  0.16549111     0.25200
C1361       C  0.39057438  0.61387394  0.17247061    -0.18600
C1362       C  0.37489839  0.62654380  0.17802845    -0.07500
C1363       C  0.38873427  0.57579075  0.15991650    -0.14000
C1364       C  0.40134108  0.56384051  0.15514483    -0.13700
C1365       C  0.41611591  0.54968222  0.14928090     0.25100
C1366       C  0.40815089  0.51595920  0.15095890    -0.19100
C1367       C  0.42245103  0.50226865  0.14521307    -0.07600
C1368       C  0.44460637  0.52209151  0.13767683    -0.03700
C1369       C  0.45265115  0.55593586  0.13607026    -0.09000
C1370       C  0.43841595  0.56962533  0.14183436    -0.16600
H1371       H  0.29833609  0.58155518  0.16846738     0.11500
H1372       H  0.32593648  0.55966143  0.15860734     0.10800
H1373       H  0.41630931  0.62285178  0.17365479     0.10800
H1374       H  0.38882071  0.64532347  0.18340084     0.11300
H1375       H  0.39090327  0.50027446  0.15669358     0.11300
H1376       H  0.41640939  0.97797185  0.14702146     0.11300
H1377       H  0.47011361  0.57179432  0.13041152     0.11400
H1378       H  0.44483326  0.59576854  0.14049530     0.10300
C1379       C  0.33584124  0.70945194  0.17570205    -0.03500
C1380       C  0.35703111  0.71315946  0.16806501    -0.09300
C1381       C  0.37216520  0.74305082  0.16219670    -0.17000
C1382       C  0.36600368  0.76928479  0.16389224     0.25200
C1383       C  0.34414466  0.76529191  0.17130702    -0.18600
C1384       C  0.32899436  0.73544375  0.17715963    -0.07500
C1385       C  0.38242147  0.80058277  0.15817030    -0.14000
C1386       C  0.39579573  0.82734214  0.15361535    -0.13700
C1387       C  0.41104125  0.85945258  0.14827367     0.25100
C1388       C  0.39469201  0.86532871  0.14033484    -0.19100
C1389       C  0.40945125  0.89647858  0.13509601    -0.07600
C1390       C  0.44093645  0.92186976  0.13766469    -0.03700
C1391       C  0.45689065  0.91610472  0.14578392    -0.09000
C1392       C  0.44202805  0.88497387  0.15105511    -0.16600
H1393       H  0.36255770  0.69333483  0.16683853     0.11500
H1394       H  0.38897830  0.74589040  0.15644871     0.10800
H1395       H  0.33905829  0.78537149  0.17262347     0.10800
H1396       H  0.31216757  0.73274714  0.18287638     0.11300
H1397       H  0.37056844  0.84583417  0.13819275     0.11300
H1398       H  0.39638053  0.90068402  0.12901001     0.11300
H1399       H  0.98115256  0.93540782  0.14789452     0.11400
H1400       H  0.45477091  0.88072266  0.15723839     0.10300
C1401       C  0.03817848  0.01847128  0.13985183    -0.03500
C1402       C  0.06218457  0.00944837  0.13862344    -0.05700
C1403       C  0.09007367  0.02283861  0.14460263    -0.17000
C1404       C  0.09595000  0.54556193  0.15133846     0.25200
C1405       C  0.07060969  0.55198393  0.15321960    -0.18600
C1406       C  0.04251813  0.53829153  0.14728978    -0.07500
C1407       C  0.12564004  0.56083925  0.15710688    -0.14000
C1408       C  0.15101791  0.57327710  0.16167768    -0.13700
C1409       C  0.18158111  0.58723063  0.16700173     0.25100
C1410       C  0.18634966  0.60569188  0.17543604    -0.19100
C1411       C  0.21563169  0.61823734  0.18075008    -0.07600
C1412       C  0.24035606  0.61195465  0.17780833    -0.03700
C1413       C  0.23574133  0.59433172  0.16916070    -0.09000
C1414       C  0.20653712  0.58195739  0.16381882    -0.16600
H1415       H  0.05955461  0.99244484  0.13293308     0.11500
H1416       H  0.10863880  0.01613847  0.14340985     0.10800
H1417       H  0.07277911  0.56798293  0.15916263     0.10800
H1418       H  0.02350448  0.54414984  0.14869925     0.11300
H1419       H  0.16741698  0.61031577  0.17792246     0.11300
H1420       H  0.21894175  0.63285478  0.18716310     0.11300
H1421       H  0.25444378  0.58961056  0.16660157     0.11400
H1422       H  0.20330525  0.56798277  0.15725453     0.10300
C1423       C  0.39122110  0.62241835  0.62885494    -0.03500
C1424       C  0.42315017  0.62818954  0.63030970    -0.09300
C1425       C  0.43024274  0.61201192  0.63824117    -0.17000
C1426       C  0.40557214  0.58983327  0.64480600     0.25200
C1427       C  0.37368579  0.58358016  0.64334965    -0.18600
C1428       C  0.36653100  0.59973559  0.63544391    -0.07500
C1429       C  0.41300883  0.57372204  0.65308352    -0.14000
C1430       C  0.41940524  0.56027479  0.65999171    -0.13700
C1431       C  0.42748908  0.54406061  0.66808873     0.25100
C1432       C  0.40366536  0.52271552  0.67499284    -0.19100
C1433       C  0.41129771  0.50601279  0.68263601    -0.07600
C1434       C  0.44291918  0.51042137  0.68346268    -0.03700
C1435       C  0.46832667  0.03336177  0.67672425    -0.09000
C1436       C  0.45912297  0.54908546  0.66894959    -0.16600
H1437       H  0.44276401  0.64561159  0.62542582     0.11500
H1438       H  0.45502610  0.61703299  0.63930350     0.10800
H1439       H  0.35438820  0.56643557  0.64837691     0.10800
H1440       H  0.34170606  0.59472824  0.63456969     0.11300
H1441       H  0.37908729  0.51864533  0.67439693     0.11300
H1442       H  0.39228402  0.48921814  0.68778525     0.11300
H1443       H  0.49312708  0.03829014  0.67759644     0.11400
H1444       H  0.48076769  0.06762955  0.66401585     0.10300
C1445       C  0.44917753  0.89094118  0.68294571    -0.03500
C1446       C  0.41753670  0.86318795  0.68185518    -0.09300
C1447       C  0.41015433  0.84189987  0.67399251    -0.17000
C1448       C  0.43421994  0.84800670  0.66710832     0.25200
C1449       C  0.46597287  0.87497791  0.66825354    -0.18600
C1450       C  0.47346915  0.89631348  0.67613676    -0.07500
C1451       C  0.42596234  0.82714118  0.65872317    -0.14000
C1452       C  0.41820090  0.80950595  0.65170586    -0.13700
C1453       C  0.40830835  0.78775915  0.64348583     0.25100
C1454       C  0.42969906  0.79507810  0.63559540    -0.19100
C1455       C  0.42063842  0.77292286  0.62786364    -0.07600
C1456       C  0.38993715  0.74326181  0.62791550    -0.03700
C1457       C  0.36828476  0.73665917  0.63575224    -0.09000
C1458       C  0.37749084  0.75871284  0.64349886    -0.16600
H1459       H  0.39826404  0.85825945  0.68696612     0.11500
H1460       H  0.38551684  0.82103355  0.67318370     0.10800
H1461       H  0.48477499  0.87988373  0.66295428     0.10800
H1462       H  0.49799533  0.91752838  0.67672822     0.11300
H1463       H  0.45358516  0.81757348  0.63550874     0.11300
H1464       H  0.43783453  0.77872637  0.62193513     0.11300
H1465       H  0.34462875  0.71388505  0.63607063     0.11400
H1466       H  0.36077727  0.75280313  0.64958348     0.10300
C1467       C  0.24479400  0.61094979  0.62832356    -0.03500
C1468       C  0.25453113  0.61929960  0.63818108    -0.09300
C1469       C  0.23127786  0.60737410  0.64575990    -0.17000
C1470       C  0.19809031  0.58686752  0.64358971     0.25200
C1471       C  0.18818337  0.57894256  0.63378607    -0.18600
C1472       C  0.21131187  0.59095785  0.62620451    -0.07500
C1473       C  0.17424589  0.57328820  0.65142374    -0.14000
C1474       C  0.15446366  0.56168090  0.65803430    -0.13700
C1475       C  0.13168235  0.54850988  0.66615515     0.25100
C1476       C  0.09882482  0.53882222  0.66458706    -0.19100
C1477       C  0.07717164  0.52757290  0.67258910    -0.07600
C1478       C  0.08824717  0.52624108  0.68227704    -0.03700
C1479       C  0.12114318  0.53537735  0.68374069    -0.09000
C1480       C  0.14264246  0.54628991  0.67572778    -0.16600
H1481       H  0.28009315  0.63463407  0.64004820     0.11500
H1482       H  0.23922098  0.61373026  0.65332664     0.10800
H1483       H  0.16260064  0.56308006  0.63201276     0.10800
H1484       H  0.20299405  0.58386712  0.61870782     0.11300
H1485       H  0.09005742  0.54045498  0.65721023     0.11300
H1486       H  0.05203027  0.52090885  0.67123868     0.11300
H1487       H  0.13307980  0.05417469  0.69155820     0.11400
H1488       H  0.16796926  0.55356691  0.67702570     0.10300
C1489       C  0.20496375  0.86631123  0.53258379    -0.03500
C1490       C  0.22534780  0.86521729  0.54014743    -0.09300
C1491       C  0.24040569  0.89145512  0.54667429    -0.17000
C1492       C  0.23507403  0.91891156  0.54572205     0.25200
C1493       C  0.21460939  0.92006861  0.53822549    -0.18600
C1494       C  0.19949811  0.89380263  0.53169617    -0.07500
C1495       C  0.24957046  0.94522206  0.55267550    -0.14000
C1496       C  0.26013820  0.96658474  0.55873200    -0.13700
C1497       C  0.27018993  0.99128835  0.56613756     0.25100
C1498       C  0.29835229  0.51993098  0.56542608    -0.19100
C1499       C  0.30797932  0.54502126  0.57231800    -0.07600
C1500       C  0.28836197  0.53969434  0.58060867    -0.03700
C1501       C  0.25956555  0.50835649  0.58202484    -0.09000
C1502       C  0.24797055  0.98740588  0.57339914    -0.16600
H1503       H  0.22984125  0.84420271  0.54093525     0.11500
H1504       H  0.25604403  0.89024927  0.55248842     0.10800
H1505       H  0.21011065  0.94108762  0.53748953     0.10800
H1506       H  0.18343259  0.89480452  0.52600108     0.11300
H1507       H  0.31328953  0.52472624  0.55894854     0.11300
H1508       H  0.33018590  0.56890482  0.57099584     0.11300
H1509       H  0.24400050  0.50334277  0.58835505     0.11400
H1510       H  0.22366027  0.96552479  0.57361456     0.10300
C1511       C  0.43028018  0.67068863  0.57820761    -0.03500
C1512       C  0.46192859  0.67678480  0.58047260    -0.09300
C1513       C  0.48487057  0.68546125  0.57297454    -0.17000
C1514       C  0.47662981  0.68825790  0.56309900     0.25200
C1515       C  0.44483974  0.68100592  0.56071158    -0.18600
C1516       C  0.42172009  0.67210911  0.56821537    -0.07500
C1517       C  0.50158633  0.70102681  0.55559908    -0.14000
C1518       C  0.02405915  0.71416125  0.54982682    -0.13700
C1519       C  0.05215705  0.73202015  0.54346595     0.25100
C1520       C  0.05487726  0.71732757  0.53497255    -0.19100
C1521       C  0.08238573  0.73483429  0.52889002    -0.07600
C1522       C  0.10728861  0.76737837  0.53119268    -0.03700
C1523       C  0.10452550  0.78179177  0.53976845    -0.09000
C1524       C  0.07709275  0.76426129  0.54584944    -0.16600
H1525       H  0.46924709  0.67564081  0.58807371     0.11500
H1526       H  0.50936463  0.69098175  0.57491772     0.10800
H1527       H  0.43819172  0.68315596  0.55309101     0.10800
H1528       H  0.39757076  0.66755855  0.56622997     0.11300
H1529       H  0.03586167  0.69231181  0.53308646     0.11300
H1530       H  0.08436749  0.72289472  0.52244183     0.11300
H1531       H  0.12350837  0.80675051  0.54171511     0.11400
H1532       H  0.07534049  0.77584981  0.55241954     0.10300
C1533       C  0.28172050  0.66139280  0.57859631    -0.03500
C1534       C  0.30253010  0.67972035  0.57059874    -0.09300
C1535       C  0.29272434  0.69530521  0.56319891    -0.17000
C1536       C  0.26214364  0.69292023  0.56373505     0.25200
C1537       C  0.24150212  0.67518375  0.57173001    -0.18600
C1538       C  0.25114880  0.65944921  0.57909888    -0.07500
C1539       C  0.25164773  0.70837953  0.55608083    -0.14000
C1540       C  0.24146913  0.72087533  0.54995067    -0.13700
C1541       C  0.22778912  0.73563496  0.54313478     0.25100
C1542       C  0.19493568  0.72642633  0.54399407    -0.19100
C1543       C  0.18185417  0.74205154  0.53780762    -0.07600
C1544       C  0.20143596  0.76685604  0.53065345    -0.03700
C1545       C  0.23429997  0.77577131  0.52972172    -0.09000
C1546       C  0.24740696  0.76013003  0.53593536    -0.16600
H1547       H  0.32611823  0.68151483  0.56996767     0.11500
H1548       H  0.30887533  0.70899258  0.55703306     0.10800
H1549       H  0.21782269  0.67329482  0.57223072     0.10800
H1550       H  0.23460886  0.64567152  0.58517289     0.11300
H1551       H  0.17957505  0.70756607  0.54955419     0.11300
H1552       H  0.15648040  0.73497120  0.53863922     0.11300
H1553       H  0.24991867  0.79531037  0.52436182     0.11400
H1554       H  0.27291225  0.76756026  0.53525344     0.10300
C1555       C  0.20711660  0.87496679  0.50987320    -0.03500
C1556       C  0.23939591  0.89925174  0.51216649    -0.09300
C1557       C  0.25485974  0.93049785  0.50694262    -0.17000
C1558       C  0.23841914  0.93759902  0.49927317     0.25200
C1559       C  0.20660445  0.91313110  0.49677291    -0.18600
C1560       C  0.19106834  0.88194804  0.50202379    -0.07500
C1561       C  0.25411210  0.96985527  0.49392267    -0.14000
C1562       C  0.26660510  0.99644889  0.48921724    -0.13700
C1563       C  0.28083265  0.52609087  0.48277619     0.25100
C1564       C  0.26306031  0.53080685  0.47502826    -0.19100
C1565       C  0.27725365  0.56074808  0.46914990    -0.07600
C1566       C  0.30955613  0.58614007  0.47088499    -0.03700
C1567       C  0.32698900  0.58159123  0.47880171    -0.09000
C1568       C  0.31274534  0.55167106  0.48469406    -0.16600
H1569       H  0.25260031  0.89407002  0.51800523     0.11500
H1570       H  0.27959173  0.94908520  0.50888352     0.10800
H1571       H  0.19372566  0.91824975  0.49080729     0.10800
H1572       H  0.16628777  0.86350543  0.50008387     0.11300
H1573       H  0.23828527  0.51129312  0.47350846     0.11300
H1574       H  0.26311333  0.56401794  0.46321715     0.11300
H1575       H  0.35187081  0.60091091  0.48028602     0.11400
H1576       H  0.32670510  0.54837417  0.49068503     0.10300
C1577       C  0.40698971  0.68343795  0.47071148    -0.03500
C1578       C  0.41212951  0.70656131  0.47792626    -0.09300
C1579       C  0.44118803  0.72116824  0.48336610    -0.17000
C1580       C  0.46507762  0.71243232  0.48169511     0.25200
C1581       C  0.45953530  0.68853889  0.47472840    -0.18600
C1582       C  0.43058144  0.67401976  0.46927883    -0.07500
C1583       C  0.49539826  0.72804788  0.48705305    -0.14000
C1584       C  0.02090456  0.74056941  0.49150161    -0.13700
C1585       C  0.05091059  0.75456505  0.49702556     0.25100
C1586       C  0.07647535  0.74989792  0.49406892    -0.19100
C1587       C  0.10493484  0.76196350  0.49976763    -0.07600
C1588       C  0.10800433  0.77869017  0.50849104    -0.03700
C1589       C  0.08274140  0.78441779  0.51118921    -0.09000
C1590       C  0.05423676  0.77211571  0.50554275    -0.16600
H1591       H  0.39411108  0.71401846  0.47912628     0.11500
H1592       H  0.44518978  0.73952446  0.48877640     0.10800
H1593       H  0.47773715  0.68140758  0.47343638     0.10800
H1594       H  0.42674603  0.65580445  0.46384136     0.11300
H1595       H  0.07418674  0.73645536  0.48745995     0.11300
H1596       H  0.12415618  0.75743920  0.49751097     0.11300
H1597       H  0.08492215  0.79813276  0.51771967     0.11400
H1598       H  0.03469927  0.77605895  0.50786257     0.10300
C1599       C  0.20510463  0.77656657  0.50806694    -0.03500
C1600       C  0.19807163  0.74288344  0.50885902    -0.09300
C1601       C  0.21565474  0.73246261  0.50330755    -0.17000
C1602       C  0.24030642  0.75554432  0.49688273     0.25200
C1603       C  0.24696694  0.78901967  0.49590552    -0.18600
C1604       C  0.22931113  0.79945760  0.50144647    -0.07500
C1605       C  0.25846112  0.74457944  0.49128074    -0.14000
C1606       C  0.27231948  0.73364838  0.48666279    -0.13700
C1607       C  0.28702901  0.71867060  0.48114515     0.25100
C1608       C  0.30748812  0.73657960  0.47311929    -0.19100
C1609       C  0.32061241  0.72136676  0.46752858    -0.07600
C1610       C  0.31313326  0.68796653  0.46986264    -0.03700
C1611       C  0.29315082  0.67040683  0.47804161    -0.09000
C1612       C  0.28007652  0.68565436  0.48363510    -0.16600
H1613       H  0.17925803  0.72480881  0.51385995     0.11500
H1614       H  0.21017414  0.70646082  0.50407169     0.10800
H1615       H  0.26593420  0.80706214  0.49093502     0.10800
H1616       H  0.23513814  0.82558117  0.50078226     0.11300
H1617       H  0.31314793  0.76219167  0.47115555     0.11300
H1618       H  0.33666668  0.73569382  0.46140758     0.11300
H1619       H  0.28719743  0.64469686  0.47998756     0.11400
H1620       H  0.26427354  0.67158028  0.48983578     0.10300
C1621       C  0.42323877  0.94082973  0.86486758    -0.03500
C1622       C  0.42053790  0.91748088  0.87244966    -0.09300
C1623       C  0.39363555  0.90285287  0.87878060    -0.17000
C1624       C  0.36931891  0.91167610  0.87765848     0.25200
C1625       C  0.37185779  0.93499364  0.87009718    -0.18600
C1626       C  0.39873021  0.94952772  0.86371400    -0.07500
C1627       C  0.34236617  0.89741423  0.88447166    -0.14000
C1628       C  0.32077427  0.88558104  0.89052453    -0.13700
C1629       C  0.29602279  0.87206832  0.89807153     0.25100
C1630       C  0.26355890  0.86174049  0.89559926    -0.19100
C1631       C  0.23979926  0.84987547  0.90300664    -0.07600
C1632       C  0.24828984  0.84836362  0.91299949    -0.03700
C1633       C  0.28089749  0.85819050  0.91537979    -0.09000
C1634       C  0.30456248  0.86992567  0.90795963    -0.16600
H1635       H  0.43927171  0.91056518  0.87344973     0.11500
H1636       H  0.39196045  0.88491707  0.88461519     0.10800
H1637       H  0.35328369  0.94217066  0.86920436     0.10800
H1638       H  0.40150284  0.46791818  0.85804870     0.11300
H1639       H  0.25669016  0.86328797  0.88796547     0.11300
H1640       H  0.21495631  0.84261514  0.90093169     0.11300
H1641       H  0.28824631  0.85728864  0.92299094     0.11400
H1642       H  0.32961437  0.87778180  0.90995355     0.10300
C1643       C  0.09929415  0.83521841  0.91259524    -0.03500
C1644       C  0.06652616  0.82607814  0.91078235    -0.09300
C1645       C  0.05860180  0.84414742  0.90370883    -0.17000
C1646       C  0.08320814  0.87168277  0.89834573     0.25200
C1647       C  0.11593334  0.88123524  0.90012003    -0.18600
C1648       C  0.12396133  0.86308272  0.90719036    -0.07500
C1649       C  0.07443290  0.88968989  0.89100440    -0.14000
C1650       C  0.06461509  0.90305649  0.88503588    -0.13700
C1651       C  0.05060624  0.91747042  0.87818968     0.25100
C1652       C  0.05539061  0.94973795  0.87957658    -0.19100
C1653       C  0.04057987  0.96312237  0.87319354    -0.07600
C1654       C  0.02092183  0.94442944  0.86532972    -0.03700
C1655       C  0.51603100  0.91197308  0.86401260    -0.09000
C1656       C  0.03093871  0.89863980  0.87038241    -0.16600
H1657       H  0.04689891  0.80468326  0.91474689     0.11500
H1658       H  0.03319776  0.83650784  0.90238573     0.10800
H1659       H  0.13519460  0.90254945  0.89601134     0.10800
H1660       H  0.14941497  0.87078083  0.90839581     0.11300
H1661       H  0.07035639  0.96443643  0.88563121     0.11300
H1662       H  0.04809684  0.48853486  0.87341117     0.11300
H1663       H  0.50046866  0.89686853  0.85811538     0.11400
H1664       H  0.02679626  0.87349729  0.86930317     0.10300
C1665       C  0.10692937  0.71514450  0.91131063    -0.03500
C1666       C  0.13114431  0.71952803  0.90459761    -0.09300
C1667       C  0.12363636  0.69662575  0.89711750    -0.17000
C1668       C  0.09192802  0.66919387  0.89629865     0.25200
C1669       C  0.06791643  0.66453422  0.90299240    -0.18600
C1670       C  0.07529103  0.68723021  0.91043108    -0.07500
C1671       C  0.08326732  0.64547152  0.88865112    -0.14000
C1672       C  0.07193036  0.62338590  0.88281164    -0.13700
C1673       C  0.05492660  0.59527403  0.87653021     0.25100
C1674       C  0.52218986  0.57155691  0.87844318    -0.19100
C1675       C  0.50545995  0.54382273  0.87249431    -0.07600
C1676       C  0.02125186  0.53982305  0.86450187    -0.03700
C1677       C  0.05419306  0.56360217  0.86263218    -0.09000
C1678       C  0.07093026  0.59128698  0.86860633    -0.16600
H1679       H  0.15568578  0.74080876  0.90504352     0.11500
H1680       H  0.14241823  0.70042128  0.89195850     0.10800
H1681       H  0.04332032  0.64336867  0.90242617     0.10800
H1682       H  0.05600006  0.68299424  0.91543828     0.11300
H1683       H  0.50963269  0.57439319  0.88458329     0.11300
H1684       H  0.48015257  0.52558300  0.87408835     0.11300
H1685       H  0.06701362  0.56050791  0.85662337     0.11400
H1686       H  0.09632535  0.60940244  0.86709074     0.10300
C1687       C  0.22202215  0.85809049  0.78071045    -0.03500
C1688       C  0.22374540  0.84367647  0.77198644    -0.09300
C1689       C  0.25091828  0.86052403  0.76579032    -0.17000
C1690       C  0.27673504  0.89224926  0.76815330     0.25200
C1691       C  0.27517835  0.90709648  0.77677435    -0.18600
C1692       C  0.24789694  0.89021966  0.78298848    -0.07500
C1693       C  0.30438211  0.90940033  0.76158650    -0.14000
C1694       C  0.32619493  0.92158740  0.75558396    -0.13700
C1695       C  0.35049467  0.93344696  0.74789294     0.25100
C1696       C  0.38373221  0.94868378  0.75025858    -0.19100
C1697       C  0.40697180  0.95816248  0.74275800    -0.07600
C1698       C  0.39721353  0.95244331  0.73278371    -0.03700
C1699       C  0.36377579  0.93769459  0.73048953    -0.09000
C1700       C  0.34065799  0.92826801  0.73798446    -0.16600
H1701       H  0.20410268  0.81935727  0.76992312     0.11500
H1702       H  0.25170334  0.84884436  0.75911150     0.10800
H1703       H  0.29486347  0.93179214  0.77864342     0.10800
H1704       H  0.24681418  0.90248385  0.78948618     0.11300
H1705       H  0.39164414  0.95273015  0.75790577     0.11300
H1706       H  0.43247712  0.96940603  0.74478312     0.11300
H1707       H  0.35535057  0.93285412  0.72290711     0.11400
H1708       H  0.31501584  0.91639766  0.73605657     0.10300
C1709       C  0.12491444  0.85583731  0.78022371    -0.03500
C1710       C  0.09347974  0.85001144  0.78232281    -0.09300
C1711       C  0.07757039  0.86143640  0.77563726    -0.17000
C1712       C  0.09256075  0.87810998  0.76667819     0.25200
C1713       C  0.12367721  0.88371159  0.76451594    -0.18600
C1714       C  0.13977051  0.87280104  0.77124065    -0.07500
C1715       C  0.07649111  0.88981657  0.75965543    -0.14000
C1716       C  0.06580688  0.90149674  0.75338995    -0.13700
C1717       C  0.05676092  0.91818261  0.74564768     0.25100
C1718       C  0.08026120  0.94017184  0.73875964    -0.19100
C1719       C  0.07267037  0.95826956  0.73158301    -0.07600
C1720       C  0.04142363  0.95486635  0.73121748    -0.03700
C1721       C  0.01760609  0.93198515  0.73800223    -0.09000
C1722       C  0.02524201  0.91372594  0.74516291    -0.16600
H1723       H  0.08095092  0.83607858  0.78902624     0.11500
H1724       H  0.05345632  0.85686945  0.77739363     0.10800
H1725       H  0.13554809  0.89656055  0.75761315     0.10800
H1726       H  0.16389913  0.87761043  0.76939831     0.11300
H1727       H  0.10473860  0.94387188  0.73906152     0.11300
H1728       H  0.09163458  0.97574322  0.72652260     0.11300
H1729       H  0.99329021  0.92869097  0.73790112     0.11400
H1730       H  0.00679794  0.89671179  0.75043606     0.10300
C1731       C  0.04101319  0.57699006  0.73536673    -0.03500
C1732       C  0.02154377  0.59169082  0.73675474    -0.09300
C1733       C  0.03000814  0.61584230  0.74389247    -0.17000
C1734       C  0.05774233  0.62520481  0.74980153     0.25200
C1735       C  0.07686598  0.61019621  0.74858454    -0.18600
C1736       C  0.06867286  0.58637213  0.74138860    -0.07500
C1737       C  0.06752326  0.65115274  0.75684224    -0.14000
C1738       C  0.07797019  0.67382646  0.76249979    -0.13700
C1739       C  0.09315730  0.70195943  0.76887660     0.25100
C1740       C  0.12717869  0.72223623  0.76890453    -0.19100
C1741       C  0.14228642  0.75000150  0.77490061    -0.07600
C1742       C  0.12354843  0.75782860  0.78091169    -0.03700
C1743       C  0.08945214  0.73725761  0.78097862    -0.09000
C1744       C  0.07429029  0.70941017  0.77496640    -0.16600
H1745       H  0.00027827  0.58513904  0.73215832     0.11500
H1746       H  0.01516209  0.62747618  0.74472130     0.10800
H1747       H  0.09840042  0.61727304  0.75310553     0.10800
H1748       H  0.08400963  0.57532825  0.74051888     0.11300
H1749       H  0.14203589  0.71658522  0.76428166     0.11300
H1750       H  0.16859408  0.76502442  0.77496661     0.11300
H1751       H  0.07466172  0.74300429  0.78559557     0.11400
H1752       H  0.04795115  0.69387198  0.77502024     0.10300
C1753       C  0.02310682  0.94803196  0.84251596    -0.03500
C1754       C  0.05557244  0.95704851  0.84479147    -0.09300
C1755       C  0.07205961  0.94525742  0.83924606    -0.17000
C1756       C  0.05653599  0.92480815  0.83124736     0.25200
C1757       C  0.02447357  0.91643886  0.82878652    -0.18600
C1758       C  0.00788692  0.92808029  0.83436860    -0.07500
C1759       C  0.07343533  0.91234808  0.82558939    -0.14000
C1760       C  0.08707957  0.90138015  0.82084356    -0.13700
C1761       C  0.10224399  0.88717851  0.81512097     0.25100
C1762       C  0.12068741  0.90474128  0.80669903    -0.19100
C1763       C  0.13402248  0.89010950  0.80090647    -0.07600
C1764       C  0.12863407  0.85746282  0.80337858    -0.03700
C1765       C  0.11117419  0.84064998  0.81206054    -0.09000
C1766       C  0.09791888  0.85528788  0.81784797    -0.16600
H1767       H  0.06819298  0.97322737  0.85085784     0.11500
H1768       H  0.09691353  0.95212304  0.84119050     0.10800
H1769       H  0.01222875  0.90074761  0.82259033     0.10800
H1770       H  0.98298370  0.92102804  0.83243638     0.11300
H1771       H  0.12453928  0.92961363  0.80456394     0.11300
H1772       H  0.14837517  0.90421903  0.79446859     0.11300
H1773       H  0.10721584  0.81590656  0.81431329     0.11400
H1774       H  0.08396022  0.84153264  0.82439142     0.10300
C1775       C  0.22164764  0.84980395  0.80360531    -0.03500
C1776       C  0.22547712  0.86838880  0.81198158    -0.09300
C1777       C  0.25380298  0.88034821  0.81776819    -0.17000
C1778       C  0.27854833  0.87368995  0.81528868     0.25200
C1779       C  0.27439833  0.85425005  0.80713215    -0.18600
C1780       C  0.24605441  0.84217767  0.80137092    -0.07500
C1781       C  0.30845967  0.88739221  0.82095750    -0.14000
C1782       C  0.33377252  0.89930190  0.82556439    -0.13700
C1783       C  0.36401025  0.91365896  0.83107726     0.25100
C1784       C  0.36874576  0.89435772  0.83861535    -0.19100
C1785       C  0.39770418  0.90842999  0.84411574    -0.07600
C1786       C  0.42224625  0.94208233  0.84218249    -0.03700
C1787       C  0.41772818  0.96109554  0.83446683    -0.09000
C1788       C  0.38869857  0.94701216  0.82897643    -0.16600
H1789       H  0.20692137  0.87436659  0.81390303     0.11500
H1790       H  0.25660170  0.89518932  0.82409021     0.10800
H1791       H  0.29318867  0.84865105  0.80517460     0.10800
H1792       H  0.24329346  0.82709202  0.79511928     0.11300
H1793       H  0.34997592  0.86848554  0.84028106     0.11300
H1794       H  0.40090380  0.89310451  0.84991428     0.11300
H1795       H  0.43786708  0.48529270  0.83232073     0.11400
H1796       H  0.38540107  0.96221284  0.82315292     0.10300
C1797       C  0.01727094  0.54266539  0.84191685    -0.03500
C1798       C  0.03796315  0.54719740  0.83403557    -0.09300
C1799       C  0.05228452  0.57738938  0.82827994    -0.17000
C1800       C  0.04583629  0.60320938  0.83030014     0.25200
C1801       C  0.02483289  0.59863644  0.83806522    -0.18600
C1802       C  0.01052771  0.56847617  0.84382827    -0.07500
C1803       C  0.06102523  0.63448545  0.82446997    -0.14000
C1804       C  0.07421566  0.66081097  0.81965420    -0.13700
C1805       C  0.09054280  0.69239099  0.81399650     0.25100
C1806       C  0.07879760  0.71505851  0.81404538    -0.19100
C1807       C  0.09488770  0.74587393  0.80862712    -0.07600
C1808       C  0.12288642  0.75429683  0.80315388    -0.03700
C1809       C  0.13442651  0.73141770  0.80304371    -0.09000
C1810       C  0.11834693  0.70060559  0.80846253    -0.16600
H1811       H  0.04355182  0.52765395  0.83247010     0.11500
H1812       H  0.06853696  0.58068255  0.82229852     0.10800
H1813       H  0.01959882  0.61839847  0.83968049     0.10800
H1814       H  0.49420615  0.56527047  0.84976503     0.11300
H1815       H  0.05714168  0.70884155  0.81822445     0.11300
H1816       H  0.08501475  0.76268998  0.80850065     0.11300
H1817       H  0.15582542  0.73745336  0.79875673     0.11400
H1818       H  0.12757434  0.68320976  0.80833836     0.10300
C1819       C  0.44521530  0.88971766  0.24310277    -0.03500
C1820       C  0.41371311  0.88208076  0.24003229    -0.09300
C1821       C  0.39839721  0.86051017  0.23222850    -0.17000
C1822       C  0.41457739  0.84675475  0.22737200     0.25200
C1823       C  0.44624068  0.85507901  0.23020174    -0.18600
C1824       C  0.46143985  0.87633211  0.23800267    -0.07500
C1825       C  0.39820922  0.82218787  0.21997877    -0.14000
C1826       C  0.38522858  0.79942888  0.21438069    -0.13700
C1827       C  0.36974914  0.77010181  0.20849108     0.25100
C1828       C  0.38844624  0.76240216  0.20240795    -0.19100
C1829       C  0.37348277  0.73270905  0.19718326    -0.07600
C1830       C  0.33977401  0.71047881  0.19806167    -0.03700
C1831       C  0.32115689  0.71840774  0.20409966    -0.09000
C1832       C  0.33607507  0.74811981  0.20928500    -0.16600
H1833       H  0.40064596  0.89200501  0.24382016     0.11500
H1834       H  0.37375951  0.85402441  0.23012323     0.10800
H1835       H  0.45894904  0.84452108  0.22651798     0.10800
H1836       H  0.48584358  0.88198175  0.24010828     0.11300
H1837       H  0.41456173  0.77912958  0.20178941     0.11300
H1838       H  0.38811933  0.72691733  0.19251116     0.11300
H1839       H  0.29504603  0.70192344  0.20466035     0.11400
H1840       H  0.32140563  0.75381545  0.21397602     0.10300
C1841       C  0.34249719  0.61247423  0.19918096    -0.03500
C1842       C  0.33429389  0.57876190  0.19811625    -0.09300
C1843       C  0.34935432  0.56448814  0.20401958    -0.17000
C1844       C  0.37276936  0.58378444  0.21103074     0.25200
C1845       C  0.38113795  0.61748408  0.21209455    -0.18600
C1846       C  0.36593194  0.63173060  0.20622788    -0.07500
C1847       C  0.38729739  0.56870530  0.21740051    -0.14000
C1848       C  0.39909701  0.55692795  0.22321477    -0.13700
C1849       C  0.41318955  0.54513369  0.23086419     0.25100
C1850       C  0.42257844  0.56170725  0.23976597    -0.19100
C1851       C  0.43623850  0.55080052  0.24730831    -0.07600
C1852       C  0.44094335  0.52315882  0.24606285    -0.03700
C1853       C  0.43061648  0.00637640  0.23757455    -0.09000
C1854       C  0.41753849  0.51744466  0.22952803    -0.16600
H1855       H  0.31595234  0.56341764  0.19279811     0.11500
H1856       H  0.34251602  0.53834452  0.20318519     0.10800
H1857       H  0.39916750  0.63261839  0.21751955     0.10800
H1858       H  0.37257553  0.65779083  0.20712713     0.11300
H1859       H  0.41935466  0.58314851  0.24088287     0.11300
H1860       H  0.44341401  0.56429674  0.25410273     0.11300
H1861       H  0.43495189  0.98575620  0.23632144     0.11400
H1862       H  0.41013626  0.00444299  0.22304681     0.10300
C1863       C  0.24554851  0.60640448  0.20068421    -0.03500
C1864       C  0.24477048  0.62150196  0.20938072    -0.09300
C1865       C  0.21885027  0.60451247  0.21602335    -0.17000
C1866       C  0.19340250  0.57208763  0.21410765     0.25200
C1867       C  0.19419644  0.55651814  0.20555261    -0.18600
C1868       C  0.22024800  0.57346610  0.19891343    -0.07500
C1869       C  0.16666490  0.55501755  0.22097614    -0.14000
C1870       C  0.14491020  0.54192218  0.22697597    -0.13700
C1871       C  0.11956681  0.52703907  0.23435324     0.25100
C1872       C  0.09322446  0.53292068  0.23377163    -0.19100
C1873       C  0.06623179  0.01692965  0.24078614    -0.07600
C1874       C  0.06984246  0.49746601  0.24874095    -0.03700
C1875       C  0.09671980  0.49214737  0.24932562    -0.09000
C1876       C  0.12133715  0.50679616  0.24217777    -0.16600
H1877       H  0.26404854  0.64656289  0.21103046     0.11500
H1878       H  0.21862607  0.61672321  0.22265226     0.10800
H1879       H  0.17478543  0.53128229  0.20403496     0.10800
H1880       H  0.22073386  0.56077010  0.19243688     0.11300
H1881       H  0.08894952  0.04656317  0.22749047     0.11300
H1882       H  0.04469885  0.01928784  0.23967054     0.11300
H1883       H  0.09846097  0.47611746  0.25519953     0.11400
H1884       H  0.14163342  0.50211080  0.24271551     0.10300
C1885       C  0.12195535  0.83620054  0.35148849    -0.03500
C1886       C  0.08978739  0.83035772  0.35116762    -0.09300
C1887       C  0.08008586  0.84564834  0.34368799    -0.17000
C1888       C  0.10234725  0.86702735  0.33644693     0.25200
C1889       C  0.13456827  0.87357868  0.33678372    -0.18600
C1890       C  0.14437228  0.85829878  0.34426815    -0.07500
C1891       C  0.09164055  0.88114078  0.32848463    -0.14000
C1892       C  0.08168248  0.89158513  0.32170558    -0.13700
C1893       C  0.06935847  0.90290410  0.31345965     0.25100
C1894       C  0.07298014  0.89535257  0.30385175    -0.19100
C1895       C  0.06097252  0.90617844  0.29579360    -0.07600
C1896       C  0.04527373  0.92484496  0.29725204    -0.03700
C1897       C  0.04164824  0.93222155  0.30695728    -0.09000
C1898       C  0.05356574  0.92121342  0.31501351    -0.16600
H1899       H  0.07189655  0.81348983  0.35659107     0.11500
H1900       H  0.05506835  0.84038097  0.34346682     0.10800
H1901       H  0.15195462  0.89006284  0.33118254     0.10800
H1902       H  0.16928788  0.86329613  0.34428577     0.11300
H1903       H  0.08507484  0.88107323  0.30258823     0.11300
H1904       H  0.06410060  0.90003321  0.28842428     0.11300
H1905       H  0.02938858  0.94624514  0.30833249     0.11400
H1906       H  0.05046679  0.92697006  0.32244232     0.10300
C1907       C  0.04865849  0.56532648  0.29851221    -0.03500
C1908       C  0.03939501  0.58834309  0.30151877    -0.09300
C1909       C  0.05558251  0.60946032  0.30926422    -0.17000
C1910       C  0.08127816  0.60800116  0.31413357     0.25200
C1911       C  0.09084389  0.58529878  0.31123228    -0.18600
C1912       C  0.07461764  0.56402716  0.30344643    -0.07500
C1913       C  0.09710039  0.62965848  0.32219497    -0.14000
C1914       C  0.10736221  0.64859578  0.32890290    -0.13700
C1915       C  0.11603450  0.67138996  0.33678797     0.25100
C1916       C  0.14784734  0.69848843  0.33760753    -0.19100
C1917       C  0.15551751  0.72161297  0.34498973    -0.07600
C1918       C  0.13134219  0.71787841  0.35161054    -0.03700
C1919       C  0.09950872  0.69032682  0.35075191    -0.09000
C1920       C  0.09195088  0.66729238  0.34338438    -0.16600
H1921       H  0.51954638  0.59004061  0.29791519     0.11500
H1922       H  0.04794204  0.62688001  0.31148584     0.10800
H1923       H  0.11067854  0.58394762  0.31500149     0.10800
H1924       H  0.08224797  0.54651429  0.30133366     0.11300
H1925       H  0.16656747  0.70201483  0.33246209     0.11300
H1926       H  0.18018225  0.74270588  0.34538911     0.11300
H1927       H  0.08026966  0.68678859  0.35567516     0.11400
H1928       H  0.06717427  0.64653599  0.34274148     0.10300
C1929       C  0.26857474  0.85327214  0.34866609    -0.03500
C1930       C  0.30254590  0.87478892  0.34932523    -0.09300
C1931       C  0.32211764  0.88399340  0.34089853    -0.17000
C1932       C  0.30813133  0.87178654  0.33169559     0.25200
C1933       C  0.27447198  0.84980616  0.33097302    -0.18600
C1934       C  0.25478225  0.84058973  0.33940115    -0.07500
C1935       C  0.32839737  0.88304706  0.32300188    -0.14000
C1936       C  0.34710476  0.89484030  0.31612978    -0.13700
C1937       C  0.37152414  0.91143203  0.30854268     0.25100
C1938       C  0.36624132  0.92825462  0.30038925    -0.19100
C1939       C  0.39114360  0.94679609  0.29348233    -0.07600
C1940       C  0.42164644  0.94867745  0.29465460    -0.03700
C1941       C  0.42639583  0.93100563  0.30276288    -0.09000
C1942       C  0.40154058  0.91262389  0.30965944    -0.16600
H1943       H  0.31397493  0.88512000  0.35631493     0.11500
H1944       H  0.34813970  0.90109217  0.34153686     0.10800
H1945       H  0.26338671  0.84022328  0.32388076     0.10800
H1946       H  0.22873897  0.82395079  0.33863355     0.11300
H1947       H  0.34312530  0.92761596  0.29948011     0.11300
H1948       H  0.38667679  0.96003357  0.28731943     0.11300
H1949       H  0.44958578  0.93198464  0.30391972     0.11400
H1950       H  0.40597698  0.89989771  0.31597707     0.10300
C1951       C  0.31024116  0.58876127  0.44805580    -0.03500
C1952       C  0.29076428  0.58860647  0.44002630    -0.09300
C1953       C  0.27592137  0.56100268  0.43399225    -0.17000
C1954       C  0.28040891  0.53328480  0.43591787     0.25200
C1955       C  0.29997304  0.53327914  0.44387430    -0.18600
C1956       C  0.31501417  0.56102529  0.44989796    -0.07500
C1957       C  0.26618477  0.50573652  0.42939081    -0.14000
C1958       C  0.25533405  0.98480645  0.42331045    -0.13700
C1959       C  0.24576404  0.96088612  0.41572096     0.25100
C1960       C  0.26974585  0.96155713  0.40976272    -0.19100
C1961       C  0.26105627  0.93809733  0.40247555    -0.07600
C1962       C  0.22815644  0.91362550  0.40103442    -0.03700
C1963       C  0.20406909  0.91351356  0.40694021    -0.09000
C1964       C  0.21288647  0.93704879  0.41427018    -0.16600
H1965       H  0.28683786  0.60977239  0.43846965     0.11500
H1966       H  0.26109591  0.56135506  0.42779005     0.10800
H1967       H  0.30390757  0.51207649  0.44533899     0.10800
H1968       H  0.33053558  0.56097717  0.45592255     0.11300
H1969       H  0.29523340  0.98009615  0.41079791     0.11300
H1970       H  0.28017427  0.93908074  0.39800033     0.11300
H1971       H  0.17854640  0.89501056  0.40599315     0.11400
H1972       H  0.19415664  0.93650673  0.41883770     0.10300
C1973       C  0.08627556  0.78430889  0.40141690    -0.03500
C1974       C  0.09636909  0.78690501  0.41138113    -0.09300
C1975       C  0.07341832  0.77615635  0.41904170    -0.17000
C1976       C  0.04023275  0.76288271  0.41681843     0.25200
C1977       C  0.03020151  0.76101959  0.40694455    -0.18600
C1978       C  0.05295372  0.77161043  0.39931307    -0.07500
C1979       C  0.51593257  0.74983140  0.42451833    -0.14000
C1980       C  0.49338236  0.73715421  0.43025625    -0.13700
C1981       C  0.46473784  0.72059854  0.43642902     0.25100
C1982       C  0.43992320  0.68784670  0.43443348    -0.19100
C1983       C  0.41168630  0.67188805  0.44023406    -0.07600
C1984       C  0.40804651  0.68844378  0.44813245    -0.03700
C1985       C  0.43283216  0.72148408  0.45002165    -0.09000
C1986       C  0.46108772  0.73740025  0.44422856    -0.16600
H1987       H  0.12180073  0.79642340  0.41324577     0.11500
H1988       H  0.08146603  0.77766385  0.42666852     0.10800
H1989       H  0.50461285  0.75076459  0.40512462     0.10800
H1990       H  0.04428058  0.76926027  0.39174316     0.11300
H1991       H  0.44236567  0.67468333  0.42837157     0.11300
H1992       H  0.39282434  0.64649178  0.43862544     0.11300
H1993       H  0.43019958  0.73506045  0.45592351     0.11400
H1994       H  0.47993311  0.76286293  0.44578036     0.10300
C1995       C  0.31156767  0.68702610  0.44713117    -0.03500
C1996       C  0.32977029  0.70985722  0.43938891    -0.09300
C1997       C  0.31536028  0.72335179  0.43289135    -0.17000
C1998       C  0.28249015  0.71384929  0.43398727     0.25200
C1999       C  0.26407317  0.69081174  0.44165510    -0.18600
C2000       C  0.27855927  0.67743695  0.44820907    -0.07500
C2001       C  0.26794098  0.72772460  0.42714792    -0.14000
C2002       C  0.25784998  0.74053385  0.42107275    -0.13700
C2003       C  0.24822827  0.75718988  0.41351177     0.25100
C2004       C  0.22027487  0.75975394  0.41469309    -0.19100
C2005       C  0.21177728  0.77701615  0.40746434    -0.07600
C2006       C  0.23124883  0.79209805  0.39896182    -0.03700
C2007       C  0.25905042  0.78895257  0.39779384    -0.09000
C2008       C  0.26743092  0.77161276  0.40501853    -0.16600
H2009       H  0.35520268  0.71738374  0.43842243     0.11500
H2010       H  0.32982363  0.74110249  0.42698081     0.10800
H2011       H  0.23856791  0.68310930  0.44253802     0.10800
H2012       H  0.26398548  0.65933609  0.45403303     0.11300
H2013       H  0.20525981  0.74875788  0.42124580     0.11300
H2014       H  0.19029222  0.77906686  0.40863147     0.11300
H2015       H  0.27458399  0.80025184  0.39136216     0.11400
H2016       H  0.28914380  0.76980039  0.40403372     0.10300
O2017       O  0.59968671  0.28675272  0.38408918    -0.81100
O2018       O  0.71632654  0.33030141  0.35606466    -0.65800
O2019       O  0.65594342  0.28787007  0.37727374    -1.12400
C2020       C  0.72017580  0.38845700  0.39328555     1.05800
O2021       O  0.76047113  0.35430625  0.36557023    -0.79000
O2022       O  0.74432441  0.32942802  0.38456860    -0.66500
Ni2023     Ni  0.61005563  0.26344037  0.37465613     1.34900
C2024       C  0.72421394  0.31256565  0.39147707     0.84600
O2025       O  0.66679768  0.26809015  0.35913842    -0.79500
O2026       O  0.61579073  0.23740042  0.36506197    -0.89800
C2027       C  0.74703576  0.34573104  0.35712097     0.84100
O2028       O  0.60846048  0.29298065  0.36450001    -0.68000
O2029       O  0.74326062  0.38708577  0.38907102    -0.87300
C2030       C  0.62988453  0.31584749  0.35884245     0.85000
C2031       C  0.63852753  0.24186429  0.35925120     1.06500
H2032       H  0.69992221  0.36512497  0.37052436     0.38300
O2033       O  0.70330608  0.34805506  0.37394649    -1.09900
O2034       O  0.69805253  0.31344479  0.39265044    -0.66600
Ni2035     Ni  0.67260185  0.32784156  0.38456057     1.26300
O2036       O  0.65972175  0.32380126  0.35912032    -0.66800
O2037       O  0.69025890  0.36867982  0.39137176    -0.79100
C2038       C  0.61007995  0.29264273  0.39292026     0.84300
O2039       O  0.64035159  0.30624400  0.39474483    -0.66300
Ni2040     Ni  0.74863256  0.36830344  0.37728066     1.27400
Ni2041     Ni  0.68545116  0.30837333  0.36644076     1.26100
H2042       H  0.66120161  0.27213805  0.38072665     0.38900
O2043       O  0.95458924  0.02201769  0.26337105    -0.81100
O2044       O  0.52337990  0.45836693  0.29006570    -0.65800
O2045       O  0.00194055  0.00603767  0.27051011    -1.12400
C2046       C  0.96278896  0.41095824  0.25169078     1.05800
O2047       O  0.53191399  0.42535053  0.28054679    -0.79000
O2048       O  0.54454049  0.46058071  0.26268840    -0.66500
Ni2049     Ni  0.98055300  0.02906568  0.27513742     1.34900
C2050       C  0.54230965  0.47929488  0.25579347     0.84600
O2051       O  0.53864606  0.02065304  0.28782297    -0.79500
O2052       O  0.50507205  0.04154743  0.28734292    -0.89800
C2053       C  0.53295069  0.43744934  0.28888388     0.84100
O2054       O  0.94713663  0.49191215  0.28102429    -0.68000
O2055       O  0.98709735  0.41009622  0.25560498    -0.87300
C2056       C  0.94986219  0.47230969  0.28747147     0.85000
C2057       C  0.52952618  0.04023262  0.29098236     1.06500
H2058       H  0.96766075  0.42848438  0.27589118     0.38300
O2059       O  0.98754370  0.44439214  0.27246972    -1.09900
O2060       O  0.51501875  0.98098994  0.25458118    -0.66600
Ni2061     Ni  0.97784628  0.46871546  0.26229332     1.26300
O2062       O  0.97568937  0.47028809  0.28840047    -0.66800
O2063       O  0.95247034  0.42964807  0.25477707    -0.79100
C2064       C  0.95414258  0.01180112  0.25477169     0.84300
O2065       O  0.96611977  0.99324517  0.25298156    -0.66300
Ni2066     Ni  0.50872386  0.42062259  0.26827230     1.27400
Ni2067     Ni  0.51337577  0.48298603  0.28024301     1.26100
H2068       H  0.52162020  0.02238387  0.26707576     0.38900
C2069       C  0.65873349  0.32452930  0.78210100     0.45300
H2070       H  0.65829092  0.32515432  0.77388053    -0.03700
C2071       C  0.65861191  0.32185571  0.80135089     0.45300
H2072       H  0.65885441  0.32036434  0.80956891    -0.03700
C2073       C  0.69310033  0.34084561  0.78660913    -0.17400
C2074       C  0.64244017  0.34266458  0.78654307    -0.17200
C2075       C  0.64044129  0.28858912  0.78666149    -0.17600
C2076       C  0.69308916  0.33890196  0.79680909    -0.17600
C2077       C  0.64274117  0.34185507  0.79677269    -0.17100
C2078       C  0.64014371  0.28698050  0.79678468    -0.17400
C2079       C  0.98654947  0.47598505  0.84379909     0.45300
H2080       H  0.98637690  0.47694763  0.83557533    -0.03700
C2081       C  0.98720776  0.47409667  0.86305392     0.45300
H2082       H  0.98749711  0.47333337  0.87128358    -0.03700
C2083       C  0.00313436  0.01195168  0.84810520    -0.17400
C2084       C  0.95225464  0.45694624  0.84842331    -0.17200
C2085       C  0.00491094  0.45871185  0.84842525    -0.17600
C2086       C  0.00339382  0.01108430  0.85827950    -0.17600
C2087       C  0.95275449  0.45607040  0.85860601    -0.17100
C2088       C  0.00511095  0.45772068  0.85861780    -0.17400
C2089       C  0.67136820  0.30811789  0.51037057     0.45300
H2090       H  0.67181769  0.31130268  0.50216565    -0.03700
C2091       C  0.67060171  0.30067662  0.52957031     0.45300
H2092       H  0.67040912  0.29748049  0.53777526    -0.03700
C2093       C  0.68924875  0.34171434  0.51559680    -0.17400
C2094       C  0.63679234  0.28952649  0.51481440    -0.17200
C2095       C  0.68771842  0.28805926  0.51433767    -0.17600
C2096       C  0.68880875  0.33771190  0.52575001    -0.17600
C2097       C  0.63647087  0.28534948  0.52497157    -0.17100
C2098       C  0.68714273  0.28411351  0.52447547    -0.17400
C2099       C  0.84347951  0.15415434  0.44947292     0.45300
H2100       H  0.84353610  0.15455929  0.44124916    -0.03700
C2101       C  0.84332958  0.15323048  0.46871309     0.45300
H2102       H  0.84346870  0.15296870  0.47693360    -0.03700
C2103       C  0.82675278  0.17215603  0.45362719    -0.17400
C2104       C  0.82555912  0.11846611  0.45432429    -0.17200
C2105       C  0.87774841  0.17115431  0.45402594    -0.17600
C2106       C  0.82682485  0.17195539  0.46379867    -0.17600
C2107       C  0.82550907  0.11784142  0.46450509    -0.17100
C2108       C  0.87759965  0.17045551  0.46418953    -0.17400
O2109       O  0.75994964  0.11681324  0.61159440    -0.81100
O2110       O  0.87768951  0.15417304  0.58437763    -0.65800
O2111       O  0.81426527  0.11425315  0.60493194    -1.12400
C2112       C  0.88227151  0.21756991  0.62034664     1.05800
O2113       O  0.91814344  0.17010564  0.59513954    -0.79000
O2114       O  0.90712083  0.16114164  0.61480596    -0.66500
Ni2115     Ni  0.76871914  0.09259572  0.60203428     1.34900
C2116       C  0.88468694  0.14080383  0.62069940     0.84600
O2117       O  0.82519832  0.09316530  0.58709914    -0.79500
O2118       O  0.77325408  0.06576912  0.59242034    -0.89800
C2119       C  0.90746559  0.16442644  0.58630399     0.84100
O2120       O  0.77005466  0.12395273  0.59194532    -0.68000
O2121       O  0.90510496  0.21977185  0.61497400    -0.87300
C2122       C  0.79235903  0.14526530  0.58617779     0.85000
C2123       C  0.79609388  0.06828803  0.58699414     1.06500
H2124       H  0.86046085  0.19014958  0.59854351     0.38300
O2125       O  0.86368019  0.17298951  0.60197684    -1.09900
O2126       O  0.85598346  0.13645477  0.62038286    -0.66600
Ni2127     Ni  0.83274362  0.15373257  0.61252058     1.26300
O2128       O  0.82151188  0.15083754  0.58654577    -0.66800
O2129       O  0.85266019  0.19389882  0.61982798    -0.79100
C2130       C  0.76961258  0.12034926  0.62053262     0.84300
O2131       O  0.79971941  0.13272858  0.62251756    -0.66300
Ni2132     Ni  0.90921045  0.19361962  0.60498496     1.27400
Ni2133     Ni  0.84494879  0.13351900  0.59436693     1.26100
H2134       H  0.81787974  0.09735309  0.60836417     0.38900
O2135       O  0.91297334  0.45397614  0.71615917    -0.81100
O2136       O  0.53584953  0.00020192  0.68995689    -0.65800
O2137       O  0.97062744  0.45689049  0.70949243    -1.12400
C2138       C  0.53065876  0.05232626  0.72786302     1.05800
O2139       O  0.57827100  0.02974816  0.69979449    -0.79000
O2140       O  0.55706060  0.49432630  0.71731075    -0.66500
Ni2141     Ni  0.92538576  0.43523213  0.70579818     1.34900
C2142       C  0.53627510  0.47684333  0.72400109     0.84600
O2143       O  0.98550388  0.43858190  0.69182094    -0.79500
O2144       O  0.93208323  0.41297443  0.69517758    -0.89800
C2145       C  0.56626919  0.01872201  0.69134087     0.84100
O2146       O  0.92793614  0.47010777  0.69688601    -0.68000
O2147       O  0.55387476  0.04907491  0.72458339    -0.87300
C2148       C  0.95045403  0.49075277  0.69107148     0.85000
C2149       C  0.95617260  0.41553603  0.69042523     1.06500
H2150       H  0.51557967  0.03469693  0.70391062     0.38300
O2151       O  0.51820856  0.01725175  0.70741147    -1.09900
O2152       O  0.51088148  0.47912789  0.72534325    -0.66600
Ni2153     Ni  0.98698976  0.49576731  0.71724187     1.26300
O2154       O  0.97899319  0.99460647  0.69138203    -0.66800
O2155       O  0.50171669  0.03544248  0.72465616    -0.79100
C2156       C  0.92336837  0.46007152  0.72499671     0.84300
O2157       O  0.95349555  0.47323916  0.72697134    -0.66300
Ni2158     Ni  0.56245181  0.03662690  0.71199699     1.27400
Ni2159     Ni  0.50272244  0.47815273  0.69931470     1.26100
H2160       H  0.97411214  0.43992251  0.71293763     0.38900
C2161       C  0.80819945  0.14393341  0.19789174     0.45300
H2162       H  0.81059810  0.14455513  0.20608244    -0.03700
C2163       C  0.80340961  0.14257919  0.17867447     0.45300
H2164       H  0.80182490  0.14254386  0.17046544    -0.03700
C2165       C  0.82354606  0.17904628  0.19268069    -0.17400
C2166       C  0.82473818  0.12642984  0.19325292    -0.17200
C2167       C  0.77274558  0.12498524  0.19415970    -0.17600
C2168       C  0.82109182  0.17831384  0.18257074    -0.17600
C2169       C  0.82234733  0.12582971  0.18311969    -0.17100
C2170       C  0.77008114  0.12486070  0.18395973    -0.17400
C2171       C  0.47566890  0.48800580  0.13662776     0.45300
H2172       H  0.47423770  0.48623311  0.14484289    -0.03700
C2173       C  0.47885590  0.49195775  0.11741210     0.45300
H2174       H  0.48018554  0.49344051  0.10919870    -0.03700
C2175       C  0.95848660  0.45345858  0.13188481    -0.17400
C2176       C  0.95985592  0.50744408  0.13169670    -0.17200
C2177       C  0.51080826  0.50579961  0.13266232    -0.17600
C2178       C  0.96017136  0.45561341  0.12172212    -0.17600
C2179       C  0.96158431  0.50956044  0.12151271    -0.17100
C2180       C  0.51239027  0.50789684  0.12248538    -0.17400
O2181       O  0.56969062  0.27728032  0.94481407    -0.81100
O2182       O  0.69420132  0.32746235  0.91889404    -0.65800
O2183       O  0.62790470  0.28065984  0.93842080    -1.12400
C2184       C  0.68971333  0.38060925  0.95584616     1.05800
O2185       O  0.73338169  0.34249271  0.93007736    -0.79000
O2186       O  0.71795793  0.32626003  0.94945839    -0.66500
Ni2187     Ni  0.58274768  0.25783024  0.93478239     1.34900
C2188       C  0.69505769  0.30570019  0.95518522     0.84600
O2189       O  0.64329101  0.26509292  0.92015997    -0.79500
O2190       O  0.59061383  0.23498875  0.92461764    -0.89800
C2191       C  0.72404168  0.33927299  0.92109052     0.84100
O2192       O  0.58443411  0.29123914  0.92538757    -0.68000
O2193       O  0.71396253  0.38338460  0.95109961    -0.87300
C2194       C  0.60721650  0.31453015  0.92016082     0.85000
C2195       C  0.61467752  0.23981584  0.91936588     1.06500
H2196       H  0.67328758  0.35831658  0.93342605     0.38300
O2197       O  0.67630913  0.34074710  0.93666285    -1.09900
O2198       O  0.66649354  0.30171540  0.95471380    -0.66600
Ni2199     Ni  0.64347430  0.31866081  0.94657289     1.26300
O2200       O  0.63664675  0.32100615  0.92073051    -0.66800
O2201       O  0.66031777  0.35757499  0.95439316    -0.79100
C2202       C  0.57912060  0.28215863  0.95377416     0.84300
O2203       O  0.60909065  0.29518649  0.95597844    -0.66300
Ni2204     Ni  0.72119848  0.36141633  0.94050057     1.27400
Ni2205     Ni  0.66019057  0.30330402  0.92832388     1.26100
H2206       H  0.63198829  0.26386966  0.94170626     0.38900
O2207       O  0.72886020  0.12416563  0.05185315    -0.81100
O2208       O  0.84593843  0.16813287  0.02325231    -0.65800
O2209       O  0.78334087  0.12345770  0.04392020    -1.12400
C2210       C  0.85179470  0.22023722  0.06178315     1.05800
O2211       O  0.88897740  0.18661505  0.03314961    -0.79000
O2212       O  0.87458448  0.16319284  0.05211787    -0.66500
Ni2213     Ni  0.73765739  0.10378455  0.04105262     1.34900
C2214       C  0.85318988  0.14309880  0.05832406     0.84600
O2215       O  0.79376458  0.10664999  0.02529849    -0.79500
O2216       O  0.74144052  0.08033905  0.03021693    -0.89800
C2217       C  0.87647015  0.18145225  0.02452956     0.84100
O2218       O  0.73962854  0.13866967  0.03216171    -0.68000
O2219       O  0.87450238  0.22119389  0.05666711    -0.87300
C2220       C  0.76202390  0.16000272  0.02641519     0.85000
C2221       C  0.76411615  0.08316400  0.02465312     1.06500
H2222       H  0.83006391  0.20078825  0.03889783     0.38300
O2223       O  0.83307698  0.18276828  0.04178260    -1.09900
O2224       O  0.82592989  0.14187351  0.05934022    -0.66600
Ni2225     Ni  0.80224994  0.16084419  0.05233251     1.26300
O2226       O  0.79058580  0.16404413  0.02643914    -0.66800
O2227       O  0.82175148  0.19919170  0.06042015    -0.79100
C2228       C  0.73968967  0.12679454  0.06066762     0.84300
O2229       O  0.76972429  0.13754913  0.06229746    -0.66300
Ni2230     Ni  0.87856021  0.20184037  0.04484231     1.27400
Ni2231     Ni  0.81395261  0.14512260  0.03338008     1.26100
H2232       H  0.78653057  0.10556433  0.04681186     0.38900
C2233       C  0.75447945  0.18011751  0.01897485    -0.03500
C2234       C  0.72273038  0.17526018  0.01801081    -0.09300
C2235       C  0.71505511  0.19144830  0.01021198    -0.17000
C2236       C  0.73897844  0.21267115  0.00330749     0.25200
C2237       C  0.77080225  0.21847012  0.00438577    -0.18600
C2238       C  0.77854702  0.20240855  0.01215913    -0.07500
C2239       C  0.73080751  0.22765229  0.99491286    -0.14000
C2240       C  0.72443996  0.24001149  0.98772799    -0.13700
C2241       C  0.71672416  0.25491303  0.97921460     0.25100
C2242       C  0.74076152  0.27486032  0.97219240    -0.19100
C2243       C  0.73352625  0.29056648  0.96416461    -0.07600
C2244       C  0.70208920  0.28647640  0.96306891    -0.03700
C2245       C  0.67793071  0.26568384  0.97005831    -0.09000
C2246       C  0.68524542  0.25007978  0.97806893    -0.16600
H2247       H  0.70362233  0.15825573  0.02310316     0.11500
H2248       H  0.69032792  0.18685071  0.00944730     0.10800
H2249       H  0.78951018  0.23487932  0.99909263     0.10800
H2250       H  0.80322291  0.20674736  0.01264632     0.11300
H2251       H  0.76522085  0.27871746  0.97300773     0.11300
H2252       H  0.75271316  0.30645307  0.95894755     0.11300
H2253       H  0.65352544  0.26206856  0.96948279     0.11400
H2254       H  0.66646200  0.23466975  0.98345879     0.10300
C2255       C  0.69656877  0.40502375  0.96360287    -0.03500
C2256       C  0.67121950  0.40341217  0.96924983    -0.09300
C2257       C  0.67830486  0.42543749  0.97693332    -0.17000
C2258       C  0.71073119  0.44923017  0.97904906     0.25200
C2259       C  0.73599110  0.45126319  0.97340673    -0.18600
C2260       C  0.72901907  0.42940166  0.96573913    -0.07500
C2261       C  0.71848116  0.47139039  0.98707939    -0.14000
C2262       C  0.72660788  0.49047479  0.99374296    -0.13700
C2263       C  0.73597384  0.01189135  0.00179461     0.25100
C2264       C  0.76708774  0.04061687  0.00165804    -0.19100
C2265       C  0.77664405  0.06353940  0.00920326    -0.07600
C2266       C  0.75506248  0.05803155  0.01696067    -0.03700
C2267       C  0.72401273  0.02877991  0.01708941    -0.09000
C2268       C  0.71459202  0.00587924  0.00956681    -0.16600
H2269       H  0.64600492  0.38491006  0.96782072     0.11500
H2270       H  0.65856606  0.42369698  0.98127382     0.10800
H2271       H  0.76116143  0.46958189  0.97499425     0.10800
H2272       H  0.74917016  0.43133444  0.96158387     0.11300
H2273       H  0.78383366  0.04547262  0.99566633     0.11300
H2274       H  0.80063114  0.08585503  0.00885571     0.11300
H2275       H  0.70684658  0.02367258  0.02296873     0.11400
H2276       H  0.69050416  0.98366622  0.00976206     0.10300
C2277       C  0.89843865  0.19113908  0.01584118    -0.03500
C2278       C  0.93245119  0.20676743  0.01723021    -0.09300
C2279       C  0.95355793  0.21798422  0.00911953    -0.17000
C2280       C  0.94113969  0.21379564  0.99947388     0.25200
C2281       C  0.90732344  0.19780079  0.99797974    -0.18600
C2282       C  0.88607990  0.18653994  0.00610519    -0.07500
C2283       C  0.96333348  0.22639873  0.99118430    -0.14000
C2284       C  0.48302209  0.23745684  0.98453608    -0.13700
C2285       C  0.50730010  0.25039034  0.97680809     0.25100
C2286       C  0.49783478  0.24776530  0.96685191    -0.19100
C2287       C  0.52126717  0.25887013  0.95935967    -0.07600
C2288       C  0.55459960  0.27280125  0.96171626    -0.03700
C2289       C  0.56394296  0.27601638  0.97175057    -0.09000
C2290       C  0.54044090  0.26485426  0.97923131    -0.16600
H2291       H  0.94288069  0.21083220  0.02460039     0.11500
H2292       H  0.97964637  0.23026840  0.01038117     0.10800
H2293       H  0.89739577  0.19435203  0.99054388     0.10800
H2294       H  0.86007250  0.17469537  0.00476539     0.11300
H2295       H  0.47228897  0.23667697  0.96487486     0.11300
H2296       H  0.51319200  0.25600858  0.95172253     0.11300
H2297       H  0.58934093  0.28655136  0.97383070     0.11400
H2298       H  0.54809093  0.26706014  0.98691103     0.10300
C2299       C  0.94533122  0.42643841  0.11522909    -0.03500
C2300       C  0.95076263  0.39908611  0.11691535    -0.09300
C2301       C  0.93596612  0.37142457  0.11084975    -0.17000
C2302       C  0.91582815  0.37096065  0.10300342     0.25200
C2303       C  0.91079990  0.39842752  0.10118971    -0.18600
C2304       C  0.92555325  0.42607412  0.10725528    -0.07500
C2305       C  0.90114665  0.34278385  0.09663877    -0.14000
C2306       C  0.89034877  0.31989153  0.09105482    -0.13700
C2307       C  0.88017305  0.29396351  0.08399236     0.25100
C2308       C  0.90379227  0.29212693  0.07850320    -0.19100
C2309       C  0.89448318  0.26792919  0.07138433    -0.07600
C2310       C  0.86127230  0.24506741  0.06961655    -0.03700
C2311       C  0.83761317  0.24675943  0.07527600    -0.09000
C2312       C  0.84704653  0.27112307  0.08241525    -0.16600
H2313       H  0.96642917  0.39917014  0.12291359     0.11500
H2314       H  0.94032209  0.35047808  0.11225257     0.10800
H2315       H  0.89548983  0.39847158  0.09509275     0.10800
H2316       H  0.92114338  0.44697297  0.10582107     0.11300
H2317       H  0.92948820  0.30964602  0.07966479     0.11300
H2318       H  0.91339926  0.26736240  0.06721122     0.11300
H2319       H  0.81186820  0.22953345  0.07412304     0.11400
H2320       H  0.82854032  0.27232287  0.08663378     0.10300
C2321       C  0.86100339  0.12121616  0.06494983    -0.03500
C2322       C  0.88903562  0.11883924  0.06330605    -0.09300
C2323       C  0.89858914  0.10154582  0.07019154    -0.17000
C2324       C  0.88032517  0.08640806  0.07881420     0.25200
C2325       C  0.85169387  0.08744037  0.08032038    -0.18600
C2326       C  0.84199695  0.10460017  0.07342328    -0.07500
C2327       C  0.89207032  0.07171966  0.08637671    -0.14000
C2328       C  0.90322828  0.06109814  0.09279827    -0.13700
C2329       C  0.91797431  0.04960081  0.10034564     0.25100
C2330       C  0.89967509  0.02927303  0.10847309    -0.19100
C2331       C  0.91394278  0.01735896  0.11560506    -0.07600
C2332       C  0.94677249  0.02595766  0.11471645    -0.03700
C2333       C  0.96503256  0.04670448  0.10661675    -0.09000
C2334       C  0.95074862  0.05848810  0.09948992    -0.16600
H2335       H  0.90409649  0.13111404  0.05683190     0.11500
H2336       H  0.92074355  0.10082956  0.06892574     0.10800
H2337       H  0.83735344  0.07580555  0.08696465     0.10800
H2338       H  0.82031548  0.10593543  0.07492420     0.11300
H2339       H  0.87426870  0.02217258  0.10920537     0.11300
H2340       H  0.90019257  0.50217196  0.12205098     0.11300
H2341       H  0.49031453  0.05353380  0.10576001     0.11400
H2342       H  0.96517679  0.07422364  0.09324921     0.10300
C2343       C  0.54281286  0.52398303  0.11656799    -0.03500
C2344       C  0.54554420  0.50700179  0.10862265    -0.09300
C2345       C  0.57344268  0.52223113  0.10270477    -0.17000
C2346       C  0.59952622  0.05621375  0.10543140     0.25200
C2347       C  0.59649609  0.07330930  0.11327735    -0.18600
C2348       C  0.56830628  0.05787503  0.11912081    -0.07500
C2349       C  0.62739990  0.07248476  0.09895198    -0.14000
C2350       C  0.64891129  0.08448448  0.09285949    -0.13700
C2351       C  0.67232988  0.09684843  0.08491237     0.25100
C2352       C  0.66205008  0.09835874  0.07519602    -0.19100
C2353       C  0.68409467  0.10869534  0.06734535    -0.07600
C2354       C  0.71688396  0.11777884  0.06909069    -0.03700
C2355       C  0.72714169  0.11666045  0.07890874    -0.09000
C2356       C  0.70496513  0.10618600  0.08676156    -0.16600
H2357       H  0.52605501  0.48191244  0.10700064     0.11500
H2358       H  0.57499975  0.50885263  0.09654970     0.10800
H2359       H  0.61560047  0.09872404  0.11475761     0.10800
H2360       H  0.56592470  0.07169190  0.12500127     0.11300
H2361       H  0.63683566  0.09109300  0.07366682     0.11300
H2362       H  0.67533393  0.10919432  0.05989342     0.11300
H2363       H  0.75213975  0.12328049  0.08050513     0.11400
H2364       H  0.71317455  0.10496421  0.09424808     0.10300
C2365       C  0.83894194  0.11344499  0.17684516    -0.03500
C2366       C  0.82129177  0.08979045  0.16969951    -0.09300
C2367       C  0.83681997  0.07771007  0.16385864    -0.17000
C2368       C  0.87017795  0.08930308  0.16509232     0.25200
C2369       C  0.88804551  0.11327706  0.17212214    -0.18600
C2370       C  0.87252310  0.12538622  0.17795596    -0.07500
C2371       C  0.88589605  0.07614313  0.15926315    -0.14000
C2372       C  0.89878337  0.06460839  0.15445903    -0.13700
C2373       C  0.91401465  0.05056374  0.14877857     0.25100
C2374       C  0.90730944  0.01743074  0.15089143    -0.19100
C2375       C  0.92209207  0.00376039  0.14535831    -0.07600
C2376       C  0.94357222  0.02305485  0.13762407    -0.03700
C2377       C  0.95051256  0.05643467  0.13563113    -0.09000
C2378       C  0.93567227  0.07004679  0.14115129    -0.16600
H2379       H  0.79541035  0.08007309  0.16879920     0.11500
H2380       H  0.82276505  0.05910712  0.15845179     0.10800
H2381       H  0.91389492  0.12248788  0.17311706     0.10800
H2382       H  0.88667042  0.14405466  0.18333393     0.11300
H2383       H  0.89062076  0.00216533  0.15679445     0.11300
H2384       H  0.91596740  0.47609396  0.14656489     0.11300
H2385       H  0.96754222  0.07201210  0.12984449     0.11400
H2386       H  0.94116409  0.09577442  0.13949436     0.10300
C2387       C  0.83441828  0.20887174  0.17592562    -0.03500
C2388       C  0.85640726  0.21360293  0.16842983    -0.09300
C2389       C  0.87120736  0.24378051  0.16267726    -0.17000
C2390       C  0.86384595  0.26921532  0.16433302     0.25200
C2391       C  0.84108171  0.26409377  0.17158323    -0.18600
C2392       C  0.82634690  0.23400459  0.17733999    -0.07500
C2393       C  0.88013300  0.30088898  0.15877160    -0.14000
C2394       C  0.89377186  0.32774727  0.15426474    -0.13700
C2395       C  0.90968357  0.35972828  0.14884510     0.25100
C2396       C  0.89351776  0.36611608  0.14095338    -0.19100
C2397       C  0.90907019  0.39692730  0.13555032    -0.07600
C2398       C  0.94115424  0.42146299  0.13790287    -0.03700
C2399       C  0.95695901  0.41526488  0.14598079    -0.09000
C2400       C  0.94131273  0.38445511  0.15141473    -0.16600
H2401       H  0.86286500  0.19442335  0.16725548     0.11500
H2402       H  0.88874345  0.24750055  0.15706215     0.10800
H2403       H  0.83507450  0.28353125  0.17287716     0.10800
H2404       H  0.80900743  0.23049651  0.18299239     0.11300
H2405       H  0.86895167  0.34724364  0.13895704     0.11300
H2406       H  0.89616586  0.40152420  0.12948992     0.11300
H2407       H  0.48163916  0.43394747  0.14793168     0.11400
H2408       H  0.95396000  0.37979882  0.15754752     0.10300
C2409       C  0.53959581  0.51826492  0.13936853    -0.03500
C2410       C  0.56451346  0.51079777  0.13778551    -0.05700
C2411       C  0.59259058  0.52456680  0.14368229    -0.17000
C2412       C  0.59418763  0.04519186  0.15193194     0.25200
C2413       C  0.56973206  0.05327446  0.15343660    -0.18600
C2414       C  0.54175147  0.03980652  0.14746207    -0.07500
C2415       C  0.62386161  0.06035695  0.15770845    -0.14000
C2416       C  0.64922699  0.07284976  0.16228555    -0.13700
C2417       C  0.67984157  0.08693619  0.16758539     0.25100
C2418       C  0.68443225  0.10484332  0.17613294    -0.19100
C2419       C  0.71384350  0.11758638  0.18139406    -0.07600
C2420       C  0.73884828  0.11194673  0.17830398    -0.03700
C2421       C  0.73434144  0.09485215  0.16954765    -0.09000
C2422       C  0.70506574  0.08238363  0.16424672    -0.16600
H2423       H  0.56243891  0.49467538  0.13189553     0.11500
H2424       H  0.61183389  0.51911011  0.14220305     0.10800
H2425       H  0.57253769  0.07040436  0.15911135     0.10800
H2426       H  0.52341539  0.04689353  0.14856490     0.11300
H2427       H  0.66528200  0.10892435  0.17873992     0.11300
H2428       H  0.71701418  0.13185472  0.18787698     0.11300
H2429       H  0.75320232  0.09061907  0.16685407     0.11400
H2430       H  0.70198994  0.06887636  0.15759045     0.10300
C2431       C  0.89243245  0.12199163  0.62851878    -0.03500
C2432       C  0.92422894  0.12700044  0.62953493    -0.09300
C2433       C  0.93189123  0.11090418  0.63734274    -0.17000
C2434       C  0.90792116  0.08962683  0.64421326     0.25200
C2435       C  0.87616543  0.08410314  0.64319171    -0.18600
C2436       C  0.86842967  0.10013248  0.63540342    -0.07500
C2437       C  0.91589808  0.07374078  0.65239305    -0.14000
C2438       C  0.92216702  0.06028554  0.65930747    -0.13700
C2439       C  0.92945777  0.04387551  0.66750189     0.25100
C2440       C  0.90460199  0.02117413  0.67392239    -0.19100
C2441       C  0.91150402  0.00440226  0.68171110    -0.07600
C2442       C  0.94341565  0.01011349  0.68315576    -0.03700
C2443       C  0.96682105  0.53240913  0.67657394    -0.09000
C2444       C  0.96133702  0.05014185  0.66896052    -0.16600
H2445       H  0.94331045  0.14373287  0.62439597     0.11500
H2446       H  0.95656366  0.11531567  0.63807681     0.10800
H2447       H  0.85744275  0.06765729  0.64847542     0.10800
H2448       H  0.84375245  0.09577256  0.63487310     0.11300
H2449       H  0.87982207  0.01614947  0.67284140     0.11300
H2450       H  0.89174904  0.98654919  0.68648225     0.11300
H2451       H  0.99136069  0.53633032  0.67695820     0.11400
H2452       H  0.97774126  0.56551632  0.66364053     0.10300
C2453       C  0.94936930  0.39105461  0.68269655    -0.03500
C2454       C  0.91699784  0.36649120  0.68055261    -0.09300
C2455       C  0.91021321  0.34508043  0.67276104    -0.17000
C2456       C  0.93560838  0.34782792  0.66701382     0.25200
C2457       C  0.96794405  0.37156910  0.66921087    -0.18600
C2458       C  0.97482823  0.39308617  0.67700760    -0.07500
C2459       C  0.92819408  0.32698169  0.65867046    -0.14000
C2460       C  0.92062979  0.30937862  0.65165784    -0.13700
C2461       C  0.91035521  0.28761793  0.64344852     0.25100
C2462       C  0.93143434  0.29473512  0.63549009    -0.19100
C2463       C  0.92189168  0.27255877  0.62775609    -0.07600
C2464       C  0.89104691  0.24305011  0.62788801    -0.03700
C2465       C  0.86968221  0.23672691  0.63578106    -0.09000
C2466       C  0.87935338  0.25883256  0.64352148    -0.16600
H2467       H  0.89679251  0.36422692  0.68475721     0.11500
H2468       H  0.88509670  0.32675624  0.67111354     0.10800
H2469       H  0.98777180  0.37384018  0.66479678     0.10800
H2470       H  0.99999402  0.41170400  0.67844789     0.11300
H2471       H  0.95543685  0.31707132  0.63535086     0.11300
H2472       H  0.93887639  0.27818616  0.62177726     0.11300
H2473       H  0.84590154  0.21412865  0.63615096     0.11400
H2474       H  0.86285848  0.25315280  0.64965219     0.10300
C2475       C  0.74527218  0.10998947  0.62859135    -0.03500
C2476       C  0.75491531  0.11385907  0.63859416    -0.09300
C2477       C  0.73151709  0.10190168  0.64614179    -0.17000
C2478       C  0.69819248  0.08587008  0.64381399     0.25200
C2479       C  0.68841585  0.08228088  0.63388406    -0.18600
C2480       C  0.71172038  0.09424991  0.62633529    -0.07500
C2481       C  0.67406986  0.07276574  0.65160586    -0.14000
C2482       C  0.65439065  0.06197389  0.65826750    -0.13700
C2483       C  0.63206325  0.04999614  0.66653641     0.25100
C2484       C  0.59829730  0.03087896  0.66502393    -0.19100
C2485       C  0.57683919  0.02010016  0.67308744    -0.07600
C2486       C  0.58887340  0.02838666  0.68279425    -0.03700
C2487       C  0.62288234  0.04727363  0.68421915    -0.09000
C2488       C  0.64422755  0.05792573  0.67616372    -0.16600
H2489       H  0.78048276  0.12570694  0.64059135     0.11500
H2490       H  0.73941552  0.10485988  0.65380001     0.10800
H2491       H  0.66274769  0.06993271  0.63196907     0.10800
H2492       H  0.70338276  0.09065139  0.61872484     0.11300
H2493       H  0.58853366  0.02454756  0.65761051     0.11300
H2494       H  0.55084225  0.00572106  0.67170247     0.11300
H2495       H  0.63031881  0.53433288  0.69109210     0.11400
H2496       H  0.67027774  0.07264616  0.67744446     0.10300
C2497       C  0.70440627  0.36550710  0.53267450    -0.03500
C2498       C  0.72448795  0.36408030  0.54028883    -0.09300
C2499       C  0.73884461  0.38972826  0.54702973    -0.17000
C2500       C  0.73311012  0.41694050  0.54625160     0.25200
C2501       C  0.71299945  0.41845720  0.53868994    -0.18600
C2502       C  0.69863669  0.39280652  0.53193346    -0.07500
C2503       C  0.74722441  0.44285576  0.55335524    -0.14000
C2504       C  0.75809046  0.46418137  0.55943608    -0.13700
C2505       C  0.76924910  0.48923762  0.56679045     0.25100
C2506       C  0.80152273  0.01958552  0.56595473    -0.19100
C2507       C  0.81040072  0.04437096  0.57289846    -0.07600
C2508       C  0.78789606  0.04108066  0.58008774    -0.03700
C2509       C  0.75671304  0.01205754  0.58033758    -0.09000
C2510       C  0.75015847  0.48334283  0.57517155    -0.16600
H2511       H  0.72920003  0.34320023  0.54097456     0.11500
H2512       H  0.75426426  0.38825431  0.55287221     0.10800
H2513       H  0.70821802  0.43929530  0.53807048     0.10800
H2514       H  0.68275538  0.39403619  0.52621326     0.11300
H2515       H  0.81888870  0.02277829  0.56034811     0.11300
H2516       H  0.83457311  0.06639811  0.57249617     0.11300
H2517       H  0.73882666  0.00860356  0.58578785     0.11400
H2518       H  0.72760237  0.45963176  0.57630749     0.10300
C2519       C  0.93031327  0.16947503  0.57824725    -0.03500
C2520       C  0.96192901  0.17551427  0.58053355    -0.09300
C2521       C  0.98478298  0.18378842  0.57303660    -0.17000
C2522       C  0.97646547  0.18620947  0.56314582     0.25200
C2523       C  0.94468429  0.17893773  0.56074354    -0.18600
C2524       C  0.92166039  0.17045470  0.56824503    -0.07500
C2525       C  0.00137764  0.19882745  0.55564180    -0.14000
C2526       C  0.52380856  0.21206173  0.54986192    -0.13700
C2527       C  0.55184947  0.23026886  0.54350228     0.25100
C2528       C  0.55447249  0.21610894  0.53487931    -0.19100
C2529       C  0.58190154  0.23399653  0.52878789    -0.07600
C2530       C  0.60681698  0.26639842  0.53121118    -0.03700
C2531       C  0.60413492  0.28028603  0.53991114    -0.09000
C2532       C  0.57678273  0.26236644  0.54600322    -0.16600
H2533       H  0.96930597  0.17469072  0.58814559     0.11500
H2534       H  0.00928213  0.18934771  0.57498912     0.10800
H2535       H  0.93798760  0.18081126  0.55311050     0.10800
H2536       H  0.89752282  0.16590871  0.56624463     0.11300
H2537       H  0.53544703  0.19121460  0.53289857     0.11300
H2538       H  0.58382207  0.22243678  0.52224199     0.11300
H2539       H  0.62311920  0.30512609  0.54194984     0.11400
H2540       H  0.57508459  0.27354513  0.55267208     0.10300
C2541       C  0.78372182  0.16389686  0.57853389    -0.03500
C2542       C  0.80468240  0.18134848  0.57048396    -0.09300
C2543       C  0.79558230  0.19731430  0.56299534    -0.17000
C2544       C  0.76555906  0.19621496  0.56348802     0.25200
C2545       C  0.74479181  0.17935289  0.57153102    -0.18600
C2546       C  0.75373224  0.16324320  0.57898975    -0.07500
C2547       C  0.75564408  0.21196973  0.55573770    -0.14000
C2548       C  0.74536155  0.22433405  0.54958560    -0.13700
C2549       C  0.73074314  0.23825801  0.54280700     0.25100
C2550       C  0.69738365  0.22705603  0.54355530    -0.19100
C2551       C  0.68316742  0.24160973  0.53740390    -0.07600
C2552       C  0.70209604  0.26725073  0.53036674    -0.03700
C2553       C  0.73546791  0.27816247  0.52952489    -0.09000
C2554       C  0.74975190  0.26370332  0.53573637    -0.16600
H2555       H  0.82782540  0.18213072  0.56987433     0.11500
H2556       H  0.81182729  0.21026624  0.55679365     0.10800
H2557       H  0.72152215  0.17840879  0.57199661     0.10800
H2558       H  0.73706965  0.15012960  0.58508665     0.11300
H2559       H  0.68247327  0.20745738  0.54901203     0.11300
H2560       H  0.65743092  0.23307631  0.53817687     0.11300
H2561       H  0.75053064  0.29837721  0.52424937     0.11400
H2562       H  0.77562986  0.27271473  0.53513928     0.10300
C2563       C  0.70627075  0.37456064  0.50991896    -0.03500
C2564       C  0.73886506  0.39845757  0.51199856    -0.09300
C2565       C  0.75453842  0.42937811  0.50660102    -0.17000
C2566       C  0.73789958  0.43658968  0.49901486     0.25200
C2567       C  0.70562516  0.41260015  0.49679872    -0.18600
C2568       C  0.68994179  0.38170419  0.50219166    -0.07500
C2569       C  0.75380764  0.46849896  0.49347763    -0.14000
C2570       C  0.76641116  0.49493653  0.48868955    -0.13700
C2571       C  0.78092323  0.02749496  0.48326197     0.25100
C2572       C  0.76322566  0.03165381  0.47538957    -0.19100
C2573       C  0.77742312  0.06122318  0.46935211    -0.07600
C2574       C  0.80966625  0.08681246  0.47105153    -0.03700
C2575       C  0.82699367  0.08286719  0.47911137    -0.09000
C2576       C  0.81273653  0.05331231  0.48516593    -0.16600
H2577       H  0.75220458  0.39312698  0.51775857     0.11500
H2578       H  0.77959692  0.44761194  0.50833428     0.10800
H2579       H  0.69254679  0.41782552  0.49092079     0.10800
H2580       H  0.66489030  0.36354427  0.50042796     0.11300
H2581       H  0.73852162  0.01195155  0.47388187     0.11300
H2582       H  0.76328738  0.06406061  0.46333867     0.11300
H2583       H  0.85181213  0.10235882  0.48058591     0.11400
H2584       H  0.82664005  0.05044030  0.49125259     0.10300
C2585       C  0.90720822  0.18418602  0.47041537    -0.03500
C2586       C  0.91222441  0.20739216  0.47758844    -0.09300
C2587       C  0.94108267  0.22188182  0.48311286    -0.17000
C2588       C  0.96488818  0.21294395  0.48156651     0.25200
C2589       C  0.95952917  0.18906849  0.47461307    -0.18600
C2590       C  0.93077236  0.17467879  0.46907061    -0.07500
C2591       C  0.99494306  0.22835119  0.48704199    -0.14000
C2592       C  0.52029685  0.24074000  0.49156029    -0.13700
C2593       C  0.55022785  0.25455135  0.49710170     0.25100
C2594       C  0.57563484  0.24963344  0.49415203    -0.19100
C2595       C  0.60407690  0.26156854  0.49984208    -0.07600
C2596       C  0.60726558  0.27838229  0.50855391    -0.03700
C2597       C  0.58214504  0.28430735  0.51126283    -0.09000
C2598       C  0.55366112  0.27218020  0.50561140    -0.16600
H2599       H  0.89420292  0.21489789  0.47871966     0.11500
H2600       H  0.94496712  0.24024519  0.48850743     0.10800
H2601       H  0.97769250  0.18180499  0.47341913     0.10800
H2602       H  0.92700046  0.15637747  0.46367015     0.11300
H2603       H  0.57324269  0.23611739  0.48755037     0.11300
H2604       H  0.62320163  0.25689062  0.49758696     0.11300
H2605       H  0.58443769  0.29804010  0.51780001     0.11400
H2606       H  0.53422689  0.27630404  0.50792120     0.10300
C2607       C  0.70358954  0.27573968  0.50774635    -0.03500
C2608       C  0.69696138  0.24219518  0.50869126    -0.09300
C2609       C  0.71383715  0.23147770  0.50292449    -0.17000
C2610       C  0.73736623  0.25412865  0.49613758     0.25200
C2611       C  0.74339725  0.28734377  0.49496023    -0.18600
C2612       C  0.72644782  0.29806793  0.50071157    -0.07500
C2613       C  0.75553619  0.24325100  0.49051453    -0.14000
C2614       C  0.77002417  0.23280516  0.48599876    -0.13700
C2615       C  0.78577562  0.21846864  0.48069291     0.25100
C2616       C  0.80567705  0.23616357  0.47254429    -0.19100
C2617       C  0.81953819  0.22133014  0.46711013    -0.07600
C2618       C  0.81323896  0.18845760  0.46970054    -0.03700
C2619       C  0.79404670  0.17127987  0.47805448    -0.09000
C2620       C  0.78033415  0.18619499  0.48350992    -0.16600
H2621       H  0.67901631  0.22445813  0.51396628     0.11500
H2622       H  0.70881589  0.20565318  0.50383841     0.10800
H2623       H  0.76147955  0.30503523  0.48970527     0.10800
H2624       H  0.73187053  0.32403969  0.49988957     0.11300
H2625       H  0.81024428  0.26125691  0.47034505     0.11300
H2626       H  0.83507104  0.23546891  0.46087319     0.11300
H2627       H  0.78902217  0.14600947  0.48021752     0.11400
H2628       H  0.76506036  0.17234509  0.48982893     0.10300
C2629       C  0.92357307  0.44054948  0.86504252    -0.03500
C2630       C  0.92065088  0.41738545  0.87271516    -0.09300
C2631       C  0.89367513  0.40312793  0.87902027    -0.17000
C2632       C  0.86951188  0.41214428  0.87778354     0.25200
C2633       C  0.87237345  0.43542190  0.87016728    -0.18600
C2634       C  0.89932054  0.44959895  0.86381803    -0.07500
C2635       C  0.84233351  0.39803789  0.88451712    -0.14000
C2636       C  0.82061619  0.38625081  0.89053194    -0.13700
C2637       C  0.79595448  0.37277307  0.89811239     0.25100
C2638       C  0.76329279  0.36157562  0.89566866    -0.19100
C2639       C  0.73965144  0.34973585  0.90311722    -0.07600
C2640       C  0.74845358  0.34911214  0.91311999    -0.03700
C2641       C  0.78126206  0.35977705  0.91547021    -0.09000
C2642       C  0.80480184  0.37149252  0.90801332    -0.16600
H2643       H  0.93920132  0.41023683  0.87378518     0.11500
H2644       H  0.89177590  0.38525427  0.88490697     0.10800
H2645       H  0.85395342  0.44278685  0.86918947     0.10800
H2646       H  0.90072032  0.96791640  0.85799426     0.11300
H2647       H  0.75616908  0.36242034  0.88802512     0.11300
H2648       H  0.71464113  0.34178291  0.90106217     0.11300
H2649       H  0.78886759  0.35956939  0.92308578     0.11400
H2650       H  0.83000050  0.38000670  0.90998706     0.10300
C2651       C  0.59889347  0.33460173  0.91293260    -0.03500
C2652       C  0.56604148  0.32474987  0.91095132    -0.09300
C2653       C  0.55795086  0.34260926  0.90383955    -0.17000
C2654       C  0.58247691  0.37066113  0.89861209     0.25200
C2655       C  0.61527500  0.38104473  0.90061180    -0.18600
C2656       C  0.62346598  0.36310880  0.90771342    -0.07500
C2657       C  0.57362833  0.38828356  0.89113974    -0.14000
C2658       C  0.56413513  0.40155289  0.88501683    -0.13700
C2659       C  0.55070598  0.41617846  0.87800696     0.25100
C2660       C  0.55746650  0.44939071  0.87894375    -0.19100
C2661       C  0.54279296  0.46289686  0.87254339    -0.07600
C2662       C  0.52140680  0.44342802  0.86508389    -0.03700
C2663       C  0.01493222  0.41022046  0.86409721    -0.09000
C2664       C  0.52954228  0.39669741  0.87053403    -0.16600
H2665       H  0.54649685  0.30290028  0.91478854     0.11500
H2666       H  0.53249038  0.33434348  0.90235961     0.10800
H2667       H  0.63448562  0.40279356  0.89663020     0.10800
H2668       H  0.64898759  0.37143559  0.90907086     0.11300
H2669       H  0.57369578  0.46467058  0.88470884     0.11300
H2670       H  0.54461439  0.98820142  0.87434767     0.11300
H2671       H  0.99819763  0.39469082  0.85846657     0.11400
H2672       H  0.52393992  0.37088516  0.86978296     0.10300
C2673       C  0.60838278  0.21487901  0.91184468    -0.03500
C2674       C  0.62919371  0.22322726  0.90364978    -0.09300
C2675       C  0.62118086  0.20034167  0.89613649    -0.17000
C2676       C  0.59251111  0.16887289  0.89680955     0.25200
C2677       C  0.57226628  0.16012243  0.90506288    -0.18600
C2678       C  0.58006329  0.18290893  0.91251126    -0.07500
C2679       C  0.58278477  0.14551558  0.88900512    -0.14000
C2680       C  0.57104889  0.12377420  0.88305647    -0.13700
C2681       C  0.55406313  0.09602594  0.87663880     0.25100
C2682       C  0.02163446  0.07159862  0.87867690    -0.19100
C2683       C  0.00503151  0.04415235  0.87261387    -0.07600
C2684       C  0.52064931  0.04102458  0.86440384    -0.03700
C2685       C  0.55333445  0.06548469  0.86244160    -0.09000
C2686       C  0.56990802  0.09295021  0.86850699    -0.16600
H2687       H  0.65105978  0.24774226  0.90290564     0.11500
H2688       H  0.63700452  0.20736943  0.88975847     0.10800
H2689       H  0.55007593  0.13581215  0.90566465     0.10800
H2690       H  0.56363925  0.17562136  0.91874315     0.11300
H2691       H  0.00921603  0.07365955  0.88499144     0.11300
H2692       H  0.97996169  0.02538327  0.87430845     0.11300
H2693       H  0.56618142  0.06303052  0.85632119     0.11400
H2694       H  0.59511396  0.11154647  0.86691926     0.10300
C2695       C  0.72265616  0.35860581  0.78023528    -0.03500
C2696       C  0.72406681  0.34431433  0.77144647    -0.09300
C2697       C  0.75130006  0.36104005  0.76527122    -0.17000
C2698       C  0.77748525  0.39238358  0.76776241     0.25200
C2699       C  0.77610330  0.40719052  0.77640573    -0.18600
C2700       C  0.74873578  0.39052949  0.78257145    -0.07500
C2701       C  0.80558251  0.40905623  0.76138650    -0.14000
C2702       C  0.82793002  0.42101272  0.75558781    -0.13700
C2703       C  0.85259299  0.43281774  0.74803824     0.25100
C2704       C  0.88522327  0.44380375  0.75051999    -0.19100
C2705       C  0.90860790  0.45349701  0.74305162    -0.07600
C2706       C  0.89950403  0.45211392  0.73301419    -0.03700
C2707       C  0.86670632  0.44142354  0.73063833    -0.09000
C2708       C  0.84350124  0.43189606  0.73808946    -0.16600
H2709       H  0.70423132  0.32008262  0.76936432     0.11500
H2710       H  0.75197135  0.34945436  0.75855828     0.10800
H2711       H  0.79607091  0.43162463  0.77835435     0.10800
H2712       H  0.74782440  0.40275162  0.78910108     0.11300
H2713       H  0.89248820  0.44441941  0.75820674     0.11300
H2714       H  0.93359346  0.46138613  0.74512260     0.11300
H2715       H  0.85881930  0.44001941  0.72299969     0.11400
H2716       H  0.81831644  0.42331217  0.73607783     0.10300
C2717       C  0.62606505  0.35660385  0.77992149    -0.03500
C2718       C  0.59404946  0.34939125  0.78177431    -0.09300
C2719       C  0.57820511  0.36068297  0.77504096    -0.17000
C2720       C  0.59393733  0.37858801  0.76629827     0.25200
C2721       C  0.62571389  0.38569688  0.76440172    -0.18600
C2722       C  0.64170232  0.37486875  0.77117326    -0.07500
C2723       C  0.57782406  0.38977939  0.75918564    -0.14000
C2724       C  0.56704370  0.40101755  0.75284820    -0.13700
C2725       C  0.55773288  0.41726391  0.74509394     0.25100
C2726       C  0.57999614  0.43642052  0.73756853    -0.19100
C2727       C  0.57251071  0.45479478  0.73046950    -0.07600
C2728       C  0.54262548  0.45438502  0.73082989    -0.03700
C2729       C  0.51988330  0.43406245  0.73822392    -0.09000
C2730       C  0.52743587  0.41563988  0.74531712    -0.16600
H2731       H  0.58111866  0.33453899  0.78832258     0.11500
H2732       H  0.55357952  0.35500935  0.77657367     0.10800
H2733       H  0.63810659  0.39951755  0.75765741     0.10800
H2734       H  0.66628869  0.38061177  0.76954672     0.11300
H2735       H  0.60352999  0.43785111  0.73733518     0.11300
H2736       H  0.59056870  0.47013528  0.72489185     0.11300
H2737       H  0.49660641  0.43307203  0.73868839     0.11400
H2738       H  0.51000733  0.40084434  0.75110725     0.10300
C2739       C  0.53789232  0.07634970  0.73575212    -0.03500
C2740       C  0.51668566  0.08868663  0.73758339    -0.09300
C2741       C  0.52483254  0.11312880  0.74460743    -0.17000
C2742       C  0.55404848  0.12519711  0.74993993     0.25200
C2743       C  0.57486596  0.11246435  0.74831947    -0.18600
C2744       C  0.56692619  0.08829414  0.74126424    -0.07500
C2745       C  0.56367287  0.15165816  0.75677882    -0.14000
C2746       C  0.57461784  0.17477550  0.76227878    -0.13700
C2747       C  0.59081609  0.20318473  0.76851199     0.25100
C2748       C  0.62495413  0.22206086  0.76856795    -0.19100
C2749       C  0.64108916  0.24987445  0.77450994    -0.07600
C2750       C  0.62323254  0.25892668  0.78048895    -0.03700
C2751       C  0.58902140  0.23991352  0.78047774    -0.09000
C2752       C  0.57283938  0.21213855  0.77448319    -0.16600
H2753       H  0.49425725  0.08010340  0.73341285     0.11500
H2754       H  0.50861671  0.12294587  0.74577083     0.10800
H2755       H  0.59754483  0.12164464  0.75240088     0.10800
H2756       H  0.58366369  0.07915942  0.74006835     0.11300
H2757       H  0.63909786  0.21526311  0.76401392     0.11300
H2758       H  0.66746969  0.26399244  0.77456380     0.11300
H2759       H  0.57495869  0.24676937  0.78504478     0.11400
H2760       H  0.54642538  0.19773605  0.77449173     0.10300
C2761       C  0.52225683  0.44675096  0.84223106    -0.03500
C2762       C  0.55447106  0.45468678  0.84443735    -0.09300
C2763       C  0.57035918  0.44280635  0.83866753    -0.17000
C2764       C  0.55452262  0.42341487  0.83050776     0.25200
C2765       C  0.52275543  0.41618163  0.82810046    -0.18600
C2766       C  0.50673717  0.42786131  0.83391684    -0.07500
C2767       C  0.57088427  0.41088512  0.82465673    -0.14000
C2768       C  0.58470404  0.40017400  0.81990083    -0.13700
C2769       C  0.60078229  0.38664888  0.81433434     0.25100
C2770       C  0.61831043  0.40381372  0.80574815    -0.19100
C2771       C  0.63292025  0.38994703  0.80019188    -0.07600
C2772       C  0.62950587  0.35827856  0.80301743    -0.03700
C2773       C  0.61323891  0.34217723  0.81192223    -0.09000
C2774       C  0.59877845  0.35608868  0.81748895    -0.16600
H2775       H  0.56743440  0.47020295  0.85059275     0.11500
H2776       H  0.59502493  0.44881389  0.84055765     0.10800
H2777       H  0.51029944  0.40133917  0.82177295     0.10800
H2778       H  0.48203417  0.42168189  0.83202084     0.11300
H2779       H  0.62052888  0.42780276  0.80331565     0.11300
H2780       H  0.64662059  0.40387378  0.79364187     0.11300
H2781       H  0.61110470  0.31853304  0.81455062     0.11400
H2782       H  0.58573953  0.34280170  0.82420747     0.10300
C2783       C  0.72282104  0.35034082  0.80305635    -0.03500
C2784       C  0.72768337  0.37026360  0.81117843    -0.09300
C2785       C  0.75617351  0.38206828  0.81687567    -0.17000
C2786       C  0.78000311  0.37384096  0.81457855     0.25200
C2787       C  0.77488725  0.35324446  0.80663606    -0.18600
C2788       C  0.74642395  0.34144517  0.80093547    -0.07500
C2789       C  0.80985025  0.38697139  0.82027107    -0.14000
C2790       C  0.83488124  0.39855552  0.82501908    -0.13700
C2791       C  0.86467713  0.41284643  0.83075676     0.25100
C2792       C  0.86821330  0.39413780  0.83873258    -0.19100
C2793       C  0.89680112  0.40820969  0.84441697    -0.07600
C2794       C  0.92212827  0.44135729  0.84226399    -0.03700
C2795       C  0.91869409  0.45976302  0.83414288    -0.09000
C2796       C  0.89010747  0.44563807  0.82844748    -0.16600
H2797       H  0.70977342  0.37730826  0.81297150     0.11500
H2798       H  0.75976191  0.39789031  0.82301352     0.10800
H2799       H  0.79298129  0.34648741  0.80480851     0.10800
H2800       H  0.74288718  0.32551822  0.79483298     0.11300
H2801       H  0.84884590  0.36869088  0.84057255     0.11300
H2802       H  0.89914175  0.39318654  0.85048911     0.11300
H2803       H  0.93636715  0.98705992  0.83284748     0.11400
H2804       H  0.88774448  0.46038673  0.82229029     0.10300
C2805       C  0.51761203  0.04334140  0.84174404    -0.03500
C2806       C  0.53952050  0.04807213  0.83421475    -0.09300
C2807       C  0.55430566  0.07820973  0.82843448    -0.17000
C2808       C  0.54706337  0.10374706  0.83006036     0.25200
C2809       C  0.52479164  0.09891882  0.83745861    -0.18600
C2810       C  0.51010236  0.06884923  0.84326981    -0.07500
C2811       C  0.56273882  0.13499887  0.82421101    -0.14000
C2812       C  0.57616473  0.16131223  0.81938595    -0.13700
C2813       C  0.59237078  0.19292570  0.81372472     0.25100
C2814       C  0.58323798  0.21733737  0.81482973    -0.19100
C2815       C  0.59893368  0.24803965  0.80934584    -0.07600
C2816       C  0.62410714  0.25479219  0.80277517    -0.03700
C2817       C  0.63311054  0.23018335  0.80165481    -0.09000
C2818       C  0.61728336  0.19937736  0.80709688    -0.16600
H2819       H  0.54570569  0.02874328  0.83296099     0.11500
H2820       H  0.57153100  0.08168399  0.82274381     0.10800
H2821       H  0.51892137  0.11844545  0.83876697     0.10800
H2822       H  0.99296680  0.06550729  0.84898337     0.11300
H2823       H  0.56378688  0.21251557  0.81985928     0.11300
H2824       H  0.59069827  0.26597566  0.81001313     0.11300
H2825       H  0.65237671  0.23486365  0.79657143     0.11400
H2826       H  0.62448326  0.18063752  0.80614595     0.10300
C2827       C  0.94705161  0.38987264  0.24310329    -0.03500
C2828       C  0.91529492  0.38144403  0.24009395    -0.09300
C2829       C  0.90026634  0.35979439  0.23229389    -0.17000
C2830       C  0.91699146  0.34677219  0.22737378     0.25200
C2831       C  0.94886891  0.35580826  0.23016038    -0.18600
C2832       C  0.96378644  0.37713635  0.23796584    -0.07500
C2833       C  0.90097480  0.32231408  0.21993604    -0.14000
C2834       C  0.88788825  0.29966942  0.21430789    -0.13700
C2835       C  0.87171788  0.27032431  0.20845024     0.25100
C2836       C  0.88951861  0.26280386  0.20193986    -0.19100
C2837       C  0.87387654  0.23295598  0.19679190    -0.07600
C2838       C  0.84038650  0.21043687  0.19816378    -0.03700
C2839       C  0.82266537  0.21833112  0.20458175    -0.09000
C2840       C  0.83825630  0.24812423  0.20970883    -0.16600
H2841       H  0.90183392  0.39083023  0.24392445     0.11500
H2842       H  0.87545070  0.35271870  0.23022856     0.10800
H2843       H  0.96198701  0.34579938  0.22642965     0.10800
H2844       H  0.98839375  0.38341631  0.24003473     0.11300
H2845       H  0.91546632  0.27974848  0.20094239     0.11300
H2846       H  0.88783547  0.22725892  0.19180414     0.11300
H2847       H  0.79669556  0.20178865  0.20548241     0.11400
H2848       H  0.82426823  0.25372259  0.21471634     0.10300
C2849       C  0.84097283  0.11124519  0.19937514    -0.03500
C2850       C  0.83287203  0.07757203  0.19824935    -0.09300
C2851       C  0.84766176  0.06309972  0.20421329    -0.17000
C2852       C  0.87070120  0.08214734  0.21134963     0.25200
C2853       C  0.87902215  0.11580737  0.21245113    -0.18600
C2854       C  0.86410785  0.13024078  0.20652774    -0.07500
C2855       C  0.88488754  0.06691591  0.21782266    -0.14000
C2856       C  0.89655594  0.05526624  0.22374001    -0.13700
C2857       C  0.91060921  0.04361605  0.23145626     0.25100
C2858       C  0.91866379  0.05938106  0.24050053    -0.19100
C2859       C  0.93259808  0.04878994  0.24805529    -0.07600
C2860       C  0.93890896  0.02228341  0.24667846    -0.03700
C2861       C  0.93147118  0.50654755  0.23708120    -0.09000
C2862       C  0.91644534  0.01697147  0.23000939    -0.16600
H2863       H  0.81473939  0.06236681  0.19286341     0.11500
H2864       H  0.84085689  0.03698333  0.20334038     0.10800
H2865       H  0.89676473  0.13076833  0.21796419     0.10800
H2866       H  0.87070533  0.15625593  0.20748646     0.11300
H2867       H  0.91427178  0.08000895  0.24170855     0.11300
H2868       H  0.93876063  0.06167809  0.25495192     0.11300
H2869       H  0.93459430  0.48507493  0.23594302     0.11400
H2870       H  0.91014702  0.50431524  0.22266853     0.10300
C2871       C  0.74506668  0.10725301  0.20122254    -0.03500
C2872       C  0.74489862  0.12274903  0.20990471    -0.09300
C2873       C  0.71914265  0.10631643  0.21661788    -0.17000
C2874       C  0.69330752  0.07403359  0.21478931     0.25200
C2875       C  0.69358320  0.05798735  0.20628231    -0.18600
C2876       C  0.71946118  0.07438055  0.19957404    -0.07500
C2877       C  0.66666788  0.05752594  0.22168683    -0.14000
C2878       C  0.64480514  0.04447736  0.22763906    -0.13700
C2879       C  0.61918465  0.02914485  0.23490273     0.25100
C2880       C  0.59136683  0.03238601  0.23380016    -0.19100
C2881       C  0.56851159  0.51824234  0.24090526    -0.07600
C2882       C  0.56863415  0.99798618  0.24897204    -0.03700
C2883       C  0.59697535  0.99535313  0.25007436    -0.09000
C2884       C  0.62202573  0.01081841  0.24308687    -0.16600
H2885       H  0.76450485  0.14767569  0.21149302     0.11500
H2886       H  0.71933877  0.11884551  0.22322481     0.10800
H2887       H  0.67387328  0.03282042  0.20484897     0.10800
H2888       H  0.71952899  0.06134993  0.19312424     0.11300
H2889       H  0.59166530  0.54865901  0.22775930     0.11300
H2890       H  0.54812754  0.52272816  0.24019639     0.11300
H2891       H  0.59960781  0.98085915  0.25624940     0.11400
H2892       H  0.64347974  0.00819789  0.24401997     0.10300
C2893       C  0.61948011  0.33361401  0.35145747    -0.03500
C2894       C  0.58663632  0.32559240  0.35090887    -0.09300
C2895       C  0.57647848  0.34115022  0.34363515    -0.17000
C2896       C  0.59895896  0.36493363  0.33683344     0.25200
C2897       C  0.63174370  0.37345846  0.33738670    -0.18600
C2898       C  0.64199325  0.35794830  0.34465754    -0.07500
C2899       C  0.58814786  0.37966617  0.32906905    -0.14000
C2900       C  0.57890596  0.39097529  0.32231678    -0.13700
C2901       C  0.56788906  0.40329748  0.31396408     0.25100
C2902       C  0.57207864  0.39588624  0.30439616    -0.19100
C2903       C  0.56099348  0.40727688  0.29623156    -0.07600
C2904       C  0.54563838  0.42637927  0.29753351    -0.03700
C2905       C  0.54170751  0.43388511  0.30719371    -0.09000
C2906       C  0.55271303  0.42231565  0.31535963    -0.16600
H2907       H  0.56866701  0.30698565  0.35601673     0.11500
H2908       H  0.55101817  0.33432081  0.34324146     0.10800
H2909       H  0.64930195  0.39177838  0.33212283     0.10800
H2910       H  0.66742521  0.36467004  0.34485610     0.11300
H2911       H  0.58377765  0.38114424  0.30324757     0.11300
H2912       H  0.56440757  0.40106076  0.28890399     0.11300
H2913       H  0.52977035  0.44830861  0.30845144     0.11400
H2914       H  0.54925906  0.42806359  0.32275109     0.10300
C2915       C  0.54708334  0.06177063  0.29937182    -0.03500
C2916       C  0.53612305  0.08240271  0.30318743    -0.09300
C2917       C  0.55206865  0.10253938  0.31114790    -0.17000
C2918       C  0.57924872  0.10251445  0.31543221     0.25200
C2919       C  0.59041972  0.08204780  0.31175424    -0.18600
C2920       C  0.57440161  0.06172030  0.30375940    -0.07500
C2921       C  0.59537629  0.12393406  0.32353975    -0.14000
C2922       C  0.60601646  0.14322430  0.33016992    -0.13700
C2923       C  0.61526440  0.16693902  0.33784545     0.25100
C2924       C  0.64634924  0.19563519  0.33791033    -0.19100
C2925       C  0.65431252  0.21976200  0.34501275    -0.07600
C2926       C  0.63116273  0.21545381  0.35211623    -0.03700
C2927       C  0.60008966  0.18629143  0.35201959    -0.09000
C2928       C  0.59223573  0.16228132  0.34492909    -0.16600
H2929       H  0.01504878  0.08290822  0.30005928     0.11500
H2930       H  0.54320136  0.11824464  0.31395541     0.10800
H2931       H  0.61145186  0.08183915  0.31504244     0.10800
H2932       H  0.58336556  0.04602732  0.30102481     0.11300
H2933       H  0.66422090  0.19963651  0.33237816     0.11300
H2934       H  0.67834128  0.24202749  0.34482206     0.11300
H2935       H  0.58158510  0.18221958  0.35732127     0.11400
H2936       H  0.56797932  0.14033420  0.34487056     0.10300
C2937       C  0.76806319  0.35421381  0.34828021    -0.03500
C2938       C  0.80226583  0.37160251  0.34925367    -0.09300
C2939       C  0.82220805  0.38199188  0.34088278    -0.17000
C2940       C  0.80833977  0.37516056  0.33142098     0.25200
C2941       C  0.77437844  0.35722788  0.33036146    -0.18600
C2942       C  0.75433331  0.34676315  0.33873350    -0.07500
C2943       C  0.82913551  0.38773904  0.32284632    -0.14000
C2944       C  0.84806191  0.39998079  0.31603886    -0.13700
C2945       C  0.87254151  0.41628029  0.30846014     0.25100
C2946       C  0.86808106  0.43428960  0.30047322    -0.19100
C2947       C  0.89293286  0.45199048  0.29349527    -0.07600
C2948       C  0.92257838  0.45186754  0.29443384    -0.03700
C2949       C  0.92649770  0.43310077  0.30239064    -0.09000
C2950       C  0.90168165  0.41552921  0.30935396    -0.16600
H2951       H  0.81367958  0.37778840  0.35647381     0.11500
H2952       H  0.84847654  0.39587496  0.34178652     0.10800
H2953       H  0.76339292  0.35182855  0.32306612     0.10800
H2954       H  0.72812497  0.33347538  0.33771482     0.11300
H2955       H  0.84564110  0.43513041  0.29973297     0.11300
H2956       H  0.88911509  0.46615113  0.28746240     0.11300
H2957       H  0.94900965  0.43252742  0.30336665     0.11400
H2958       H  0.90545475  0.40181733  0.31553578     0.10300
C2959       C  0.80941256  0.08857213  0.44819711    -0.03500
C2960       C  0.78899311  0.08805425  0.44040878    -0.09300
C2961       C  0.77417047  0.06059938  0.43432582    -0.17000
C2962       C  0.77969148  0.03345152  0.43595645     0.25200
C2963       C  0.80007693  0.03375654  0.44370367    -0.18600
C2964       C  0.81499310  0.06130587  0.44980220    -0.07500
C2965       C  0.76563036  0.00617326  0.42934600    -0.14000
C2966       C  0.75586077  0.48428166  0.42337978    -0.13700
C2967       C  0.74639488  0.46045783  0.41575394     0.25100
C2968       C  0.77057452  0.45931713  0.41037195    -0.19100
C2969       C  0.76196446  0.43617721  0.40298742    -0.07600
C2970       C  0.72893435  0.41375237  0.40087806    -0.03700
C2971       C  0.70470586  0.41545072  0.40622191    -0.09000
C2972       C  0.71343899  0.43872401  0.41363205    -0.16600
H2973       H  0.78446365  0.10890285  0.43905455     0.11500
H2974       H  0.75865364  0.06068077  0.42829620     0.10800
H2975       H  0.80475865  0.01297025  0.44493872     0.10800
H2976       H  0.83115809  0.06157484  0.45566447     0.11300
H2977       H  0.79614813  0.47623337  0.41192170     0.11300
H2978       H  0.78125319  0.43572730  0.39898897     0.11300
H2979       H  0.67907714  0.39863121  0.40475112     0.11400
H2980       H  0.69455542  0.43963472  0.41773054     0.10300
C2981       C  0.58621365  0.28379395  0.40101502    -0.03500
C2982       C  0.59582581  0.28691071  0.41102850    -0.09300
C2983       C  0.57242897  0.27585574  0.41856799    -0.17000
C2984       C  0.53925865  0.26168569  0.41617576     0.25200
C2985       C  0.52967657  0.25921945  0.40624693    -0.18600
C2986       C  0.55288192  0.27015710  0.39873528    -0.07500
C2987       C  0.01458363  0.24845651  0.42377574    -0.14000
C2988       C  0.99200806  0.23580152  0.42950900    -0.13700
C2989       C  0.96360716  0.21951599  0.43579497     0.25100
C2990       C  0.93874053  0.18659327  0.43399674    -0.19100
C2991       C  0.91081172  0.17090775  0.43994023    -0.07600
C2992       C  0.90754732  0.18790040  0.44779018    -0.03700
C2993       C  0.93238913  0.22108232  0.44948473    -0.09000
C2994       C  0.96031597  0.23673412  0.44354454    -0.16600
H2995       H  0.62125827  0.29718684  0.41302909     0.11500
H2996       H  0.58014094  0.27786638  0.42623831     0.10800
H2997       H  0.00410120  0.24829691  0.40429608     0.10800
H2998       H  0.54456495  0.26734727  0.39112240     0.11300
H2999       H  0.94090211  0.17308642  0.42798099     0.11300
H3000       H  0.89188868  0.14539408  0.43847642     0.11300
H3001       H  0.93003486  0.23498908  0.45534156     0.11400
H3002       H  0.97920188  0.26232012  0.44494822     0.10300
C3003       C  0.81112557  0.18655962  0.44693862    -0.03500
C3004       C  0.82898280  0.20850632  0.43899829    -0.09300
C3005       C  0.81435846  0.22140088  0.43238337    -0.17000
C3006       C  0.78161902  0.21221661  0.43356672     0.25200
C3007       C  0.76353264  0.19013209  0.44145144    -0.18600
C3008       C  0.77822861  0.17729185  0.44811534    -0.07500
C3009       C  0.76697648  0.22561374  0.42660975    -0.14000
C3010       C  0.75712770  0.23841517  0.42045978    -0.13700
C3011       C  0.74780783  0.25546306  0.41295258     0.25100
C3012       C  0.72074777  0.25938406  0.41436992    -0.19100
C3013       C  0.71270127  0.27736153  0.40727633    -0.07600
C3014       C  0.73175523  0.29184896  0.39867355    -0.03700
C3015       C  0.75867131  0.28736527  0.39725645    -0.09000
C3016       C  0.76658476  0.26924899  0.40435012    -0.16600
H3017       H  0.85431781  0.21577347  0.43795462     0.11500
H3018       H  0.82856220  0.23845054  0.42631267     0.10800
H3019       H  0.73813255  0.18273719  0.44241257     0.10800
H3020       H  0.76390360  0.15984733  0.45409629     0.11300
H3021       H  0.70611593  0.24893335  0.42101496     0.11300
H3022       H  0.69190342  0.28043905  0.40863007     0.11300
H3023       H  0.77380712  0.29812783  0.39072432     0.11400
H3024       H  0.78762882  0.26639203  0.40318964     0.10300
O3025       O  0.59838980  0.78554869  0.38446412    -0.81100
O3026       O  0.71697588  0.82932504  0.35647294    -0.65800
O3027       O  0.65537320  0.78795350  0.37744325    -1.12400
C3028       C  0.71946132  0.88820127  0.39351614     1.05800
O3029       O  0.76115096  0.85579377  0.36584372    -0.79000
O3030       O  0.74348316  0.82891699  0.38468228    -0.66500
Ni3031     Ni  0.60959381  0.76464972  0.37444810     1.34900
C3032       C  0.72350522  0.81242517  0.39165894     0.84600
O3033       O  0.66782040  0.76774015  0.35968758    -0.79500
O3034       O  0.61526243  0.74044529  0.36421005    -0.89800
C3035       C  0.74765856  0.84559603  0.35749011     0.84100
O3036       O  0.60990287  0.79707462  0.36501108    -0.68000
O3037       O  0.74252610  0.88623305  0.38953704    -0.87300
C3038       C  0.63145058  0.81795397  0.35898983     0.85000
C3039       C  0.63870368  0.74345731  0.35900563     1.06500
H3040       H  0.69975802  0.86506997  0.37055602     0.38300
O3041       O  0.70311330  0.84815518  0.37409345    -1.09900
O3042       O  0.69748924  0.81361600  0.39283688    -0.66600
Ni3043     Ni  0.67213035  0.82802836  0.38466211     1.26300
O3044       O  0.66048575  0.82324982  0.35896200    -0.66800
O3045       O  0.68964309  0.86893736  0.39140476    -0.79100
C3046       C  0.60956412  0.79254873  0.39319003     0.84300
O3047       O  0.63995199  0.80663029  0.39485084    -0.66300
Ni3048     Ni  0.74836652  0.86841300  0.37763423     1.27400
Ni3049     Ni  0.68570993  0.80814184  0.36676440     1.26100
H3050       H  0.65994340  0.77188386  0.38100630     0.38900
O3051       O  0.95539452  0.52219338  0.26279439    -0.81100
O3052       O  0.52285096  0.95691598  0.29003131    -0.65800
O3053       O  0.00310658  0.50701959  0.27016396    -1.12400
C3054       C  0.96119348  0.91061037  0.25171367     1.05800
O3055       O  0.53079346  0.92388082  0.28034568    -0.79000
O3056       O  0.54314335  0.95987614  0.26265542    -0.66500
Ni3057     Ni  0.98184706  0.53059494  0.27446212     1.34900
C3058       C  0.54089333  0.97899785  0.25590303     0.84600
O3059       O  0.53926214  0.52213506  0.28762434    -0.79500
O3060       O  0.50676992  0.54436118  0.28652352    -0.89800
C3061       C  0.53223128  0.93593244  0.28871806     0.84100
O3062       O  0.94578505  0.98944242  0.28135588    -0.68000
O3063       O  0.98563102  0.90970267  0.25549877    -0.87300
C3064       C  0.94888621  0.96993173  0.28775589     0.85000
C3065       C  0.53077346  0.54270946  0.29038028     1.06500
H3066       H  0.96665876  0.92734787  0.27602088     0.38300
O3067       O  0.98644372  0.94334056  0.27257070    -1.09900
O3068       O  0.51652538  0.48142136  0.25441153    -0.66600
Ni3069     Ni  0.97648806  0.96794765  0.26257003     1.26300
O3070       O  0.97512518  0.96870639  0.28869887    -0.66800
O3071       O  0.95093801  0.92914507  0.25496088    -0.79100
C3072       C  0.95560972  0.51229286  0.25420983     0.84300
O3073       O  0.96776706  0.49381955  0.25252003    -0.66300
Ni3074     Ni  0.50742451  0.91966997  0.26814436     1.27400
Ni3075     Ni  0.51253897  0.98172895  0.28038862     1.26100
H3076       H  0.52292770  0.52315509  0.26674953     0.38900
C3077       C  0.65797861  0.82379686  0.78247257     0.45300
H3078       H  0.65773078  0.82434511  0.77425594    -0.03700
C3079       C  0.65749366  0.82111783  0.80171713     0.45300
H3080       H  0.65741398  0.81953958  0.80993829    -0.03700
C3081       C  0.69232726  0.84027937  0.78704829    -0.17400
C3082       C  0.64139047  0.84185169  0.78685755    -0.17200
C3083       C  0.63977679  0.78779073  0.78703989    -0.17600
C3084       C  0.69209292  0.83829641  0.79725741    -0.17600
C3085       C  0.64160829  0.84096954  0.79709263    -0.17100
C3086       C  0.63920909  0.78632310  0.79715157    -0.17400
C3087       C  0.98674062  0.97675256  0.84376264     0.45300
H3088       H  0.98672801  0.97751540  0.83553802    -0.03700
C3089       C  0.98687467  0.97523737  0.86301771     0.45300
H3090       H  0.98684537  0.97454843  0.87124446    -0.03700
C3091       C  0.00311908  0.51108610  0.84820521    -0.17400
C3092       C  0.95234581  0.95775710  0.84832763    -0.17200
C3093       C  0.00511751  0.95968732  0.84854160    -0.17600
C3094       C  0.00367892  0.50998385  0.85837279    -0.17600
C3095       C  0.95259061  0.95699873  0.85849805    -0.17100
C3096       C  0.00495663  0.95881539  0.85873474    -0.17400
C3097       C  0.67220299  0.80843544  0.51040887     0.45300
H3098       H  0.67287075  0.81145754  0.50219984    -0.03700
C3099       C  0.67101056  0.80137633  0.52962341     0.45300
H3100       H  0.67066045  0.79839742  0.53783519    -0.03700
C3101       C  0.68996278  0.84214189  0.51557879    -0.17400
C3102       C  0.63748414  0.78989579  0.51479517    -0.17200
C3103       C  0.68855453  0.78852573  0.51451625    -0.17600
C3104       C  0.68928507  0.83832298  0.52573684    -0.17600
C3105       C  0.63699531  0.78597796  0.52496505    -0.17100
C3106       C  0.68758097  0.78460807  0.52465685    -0.17400
C3107       C  0.84390254  0.65447060  0.44957248     0.45300
H3108       H  0.84430166  0.65533212  0.44134777    -0.03700
C3109       C  0.84305977  0.65262981  0.46882494     0.45300
H3110       H  0.84287067  0.65196808  0.47704871    -0.03700
C3111       C  0.82694961  0.67219895  0.45376243    -0.17400
C3112       C  0.82592665  0.61852885  0.45428014    -0.17200
C3113       C  0.87800561  0.67134977  0.45425057    -0.17600
C3114       C  0.82665586  0.67149210  0.46393475    -0.17600
C3115       C  0.82548269  0.61747472  0.46446525    -0.17100
C3116       C  0.87750902  0.67011702  0.46441703    -0.17400
O3117       O  0.75959606  0.61648929  0.61140260    -0.81100
O3118       O  0.87744752  0.65441654  0.58438307    -0.65800
O3119       O  0.81444388  0.61442160  0.60505336    -1.12400
C3120       C  0.88150183  0.71795301  0.62034363     1.05800
O3121       O  0.91807805  0.67082362  0.59513470    -0.79000
O3122       O  0.90631601  0.66061569  0.61483456    -0.66500
Ni3123     Ni  0.76881048  0.59146138  0.60227880     1.34900
C3124       C  0.88394537  0.64124776  0.62089552     0.84600
O3125       O  0.82508944  0.59305438  0.58714679    -0.79500
O3126       O  0.77389157  0.56390286  0.59308454    -0.89800
C3127       C  0.90734255  0.66515142  0.58629414     0.84100
O3128       O  0.76910741  0.62113464  0.59181764    -0.68000
O3129       O  0.90462663  0.71950697  0.61525852    -0.87300
C3130       C  0.79122278  0.64338853  0.58618712     0.85000
C3131       C  0.79649309  0.56720094  0.58740490     1.06500
H3132       H  0.86048737  0.69045984  0.59844585     0.38300
O3133       O  0.86351366  0.67328769  0.60195813    -1.09900
O3134       O  0.85560141  0.63783687  0.62061885    -0.66600
Ni3135     Ni  0.83237590  0.65438863  0.61243366     1.26300
O3136       O  0.82085372  0.65049729  0.58668511    -0.66800
O3137       O  0.85174524  0.69496230  0.61951836    -0.79100
C3138       C  0.76919115  0.62100979  0.62033420     0.84300
O3139       O  0.79927454  0.63389567  0.62238050    -0.66300
Ni3140     Ni  0.90891204  0.69374725  0.60513289     1.27400
Ni3141     Ni  0.84483418  0.63361288  0.59441093     1.26100
H3142       H  0.81864684  0.59806561  0.60857443     0.38900
O3143       O  0.91142019  0.95430143  0.71594416    -0.81100
O3144       O  0.53563517  0.50034988  0.68948962    -0.65800
O3145       O  0.96947862  0.95690471  0.70963263    -1.12400
C3146       C  0.53334503  0.55293704  0.72746408     1.05800
O3147       O  0.57867618  0.52724478  0.69932842    -0.79000
O3148       O  0.55547702  0.99446870  0.71760346    -0.66500
Ni3149     Ni  0.92440422  0.93528293  0.70577000     1.34900
C3150       C  0.53468104  0.97690395  0.72430332     0.84600
O3151       O  0.98525664  0.93857205  0.69210069    -0.79500
O3152       O  0.93170433  0.91275607  0.69536834    -0.89800
C3153       C  0.56616333  0.51726032  0.69085313     0.84100
O3154       O  0.92749289  0.96992135  0.69663541    -0.68000
O3155       O  0.55650119  0.55009483  0.72392222    -0.87300
C3156       C  0.95040646  0.99056502  0.69092583     0.85000
C3157       C  0.95594632  0.91541961  0.69067721     1.06500
H3158       H  0.51683429  0.53476518  0.70370592     0.38300
O3159       O  0.51943646  0.51719657  0.70713221    -1.09900
O3160       O  0.50911208  0.97899339  0.72560487    -0.66600
Ni3161     Ni  0.98532831  0.99565665  0.71737613     1.26300
O3162       O  0.97900965  0.49464427  0.69129169    -0.66800
O3163       O  0.50407648  0.53566829  0.72452958    -0.79100
C3164       C  0.92135475  0.96025564  0.72483398     0.84300
O3165       O  0.95135911  0.97305476  0.72694391    -0.66300
Ni3166     Ni  0.56398953  0.53609796  0.71143711     1.27400
Ni3167     Ni  0.50218803  0.97810614  0.69962253     1.26100
H3168       H  0.97276082  0.93991639  0.71314935     0.38900
C3169       C  0.80882210  0.64413828  0.19760486     0.45300
H3170       H  0.81087875  0.64458122  0.20580440    -0.03700
C3171       C  0.80492876  0.64315439  0.17836789     0.45300
H3172       H  0.80358584  0.64315755  0.17015477    -0.03700
C3173       C  0.82371152  0.67931888  0.19246378    -0.17400
C3174       C  0.82623394  0.62745521  0.19301634    -0.17200
C3175       C  0.77357572  0.62464031  0.19373863    -0.17600
C3176       C  0.82187097  0.67882321  0.18233261    -0.17600
C3177       C  0.82433970  0.62702570  0.18287706    -0.17100
C3178       C  0.77139174  0.62475522  0.18353540    -0.17400
C3179       C  0.47446616  0.98855570  0.13674675     0.45300
H3180       H  0.47256061  0.98638224  0.14495265    -0.03700
C3181       C  0.47903955  0.99358408  0.11755293     0.45300
H3182       H  0.48098319  0.99555992  0.10934770    -0.03700
C3183       C  0.95769553  0.95428455  0.13182014    -0.17400
C3184       C  0.95905280  0.00834582  0.13176908    -0.17200
C3185       C  0.50983492  0.00649972  0.13300584    -0.17600
C3186       C  0.96001240  0.95710358  0.12166684    -0.17600
C3187       C  0.96145318  0.01086692  0.12160341    -0.17100
C3188       C  0.51215804  0.00911486  0.12285556    -0.17400
O3189       O  0.56938088  0.77758480  0.94454078    -0.81100
O3190       O  0.69401082  0.82692632  0.91867771    -0.65800
O3191       O  0.62731063  0.78049548  0.93808225    -1.12400
C3192       C  0.68969375  0.88003683  0.95568316     1.05800
O3193       O  0.73293757  0.84136705  0.92993590    -0.79000
O3194       O  0.71726626  0.82506271  0.94932566    -0.66500
Ni3195     Ni  0.58218796  0.75829232  0.93440493     1.34900
C3196       C  0.69404502  0.80449326  0.95495804     0.84600
O3197       O  0.64259941  0.76470967  0.91985990    -0.79500
O3198       O  0.58972636  0.73570331  0.92411371    -0.89800
C3199       C  0.72378017  0.83848613  0.92092957     0.84100
O3200       O  0.58446276  0.79222352  0.92514110    -0.68000
O3201       O  0.71398456  0.88270164  0.95098010    -0.87300
C3202       C  0.60737511  0.81510950  0.91986013     0.85000
C3203       C  0.61369763  0.74002912  0.91891218     1.06500
H3204       H  0.67344429  0.85811777  0.93318418     0.38300
O3205       O  0.67619371  0.84036885  0.93641686    -1.09900
O3206       O  0.66566461  0.80088990  0.95438943    -0.66600
Ni3207     Ni  0.64321250  0.81843041  0.94627033     1.26300
O3208       O  0.63664544  0.82104213  0.92040233    -0.66800
O3209       O  0.66029235  0.85718103  0.95415533    -0.79100
C3210       C  0.57894393  0.78212573  0.95349019     0.84300
O3211       O  0.60890605  0.79510743  0.95564834    -0.66300
Ni3212     Ni  0.72100039  0.86050332  0.94036680     1.27400
Ni3213     Ni  0.65978960  0.80293863  0.92804343     1.26100
H3214       H  0.63107452  0.76346687  0.94135404     0.38900
O3215       O  0.73054634  0.62578339  0.05161437    -0.81100
O3216       O  0.84675084  0.67101187  0.02303777    -0.65800
O3217       O  0.78479855  0.62486677  0.04376356    -1.12400
C3218       C  0.85306695  0.72157337  0.06164434     1.05800
O3219       O  0.88930200  0.68700274  0.03304090    -0.79000
O3220       O  0.87557670  0.66397606  0.05205843    -0.66500
Ni3221     Ni  0.73898355  0.60413929  0.04111392     1.34900
C3222       C  0.85427746  0.64414631  0.05832552     0.84600
O3223       O  0.79437304  0.60929745  0.02482002    -0.79500
O3224       O  0.74294878  0.57986364  0.03057965    -0.89800
C3225       C  0.87718810  0.68346504  0.02437912     0.84100
O3226       O  0.73947774  0.63731045  0.03181534    -0.68000
O3227       O  0.87574980  0.72222212  0.05657958    -0.87300
C3228       C  0.76172458  0.66022709  0.02635776     0.85000
C3229       C  0.76529388  0.58433051  0.02459017     1.06500
H3230       H  0.83145365  0.70252802  0.03898900     0.38300
O3231       O  0.83424896  0.68422796  0.04174855    -1.09900
O3232       O  0.82709808  0.64308879  0.05931624    -0.66600
Ni3233     Ni  0.80348834  0.66206053  0.05226012     1.26300
O3234       O  0.79107136  0.66645370  0.02660804    -0.66800
O3235       O  0.82297182  0.70043877  0.06035007    -0.79100
C3236       C  0.74096144  0.62784163  0.06045866     0.84300
O3237       O  0.77091702  0.63850784  0.06217640    -0.66300
Ni3238     Ni  0.87959811  0.70267591  0.04476212     1.27400
Ni3239     Ni  0.81487336  0.64721127  0.03314636     1.26100
H3240       H  0.78860155  0.60725591  0.04654624     0.38900
C3241       C  0.75296648  0.67959257  0.01899611    -0.03500
C3242       C  0.72035006  0.67194356  0.01776522    -0.09300
C3243       C  0.71171813  0.68744799  0.01000924    -0.17000
C3244       C  0.73554170  0.71080058  0.00341459     0.25200
C3245       C  0.76813452  0.71937978  0.00477525    -0.18600
C3246       C  0.77682784  0.70396920  0.01250455    -0.07500
C3247       C  0.72663425  0.72515270  0.99502559    -0.14000
C3248       C  0.72026379  0.73733295  0.98779695    -0.13700
C3249       C  0.71330909  0.75244794  0.97917515     0.25100
C3250       C  0.73820385  0.77321016  0.97247884    -0.19100
C3251       C  0.73179486  0.78928410  0.96436774    -0.07600
C3252       C  0.70033561  0.78477288  0.96286573    -0.03700
C3253       C  0.67530700  0.76309773  0.96951311    -0.09000
C3254       C  0.68179395  0.74711695  0.97760597    -0.16600
H3255       H  0.70135526  0.65327480  0.02260382     0.11500
H3256       H  0.68639656  0.68067368  0.00902906     0.10800
H3257       H  0.78676930  0.73746399  0.99972213     0.10800
H3258       H  0.80213698  0.71046998  0.01320578     0.11300
H3259       H  0.76270032  0.77745516  0.97362518     0.11300
H3260       H  0.75162596  0.80584828  0.95942579     0.11300
H3261       H  0.65082467  0.75908590  0.96861388     0.11400
H3262       H  0.66234072  0.73106723  0.98273503     0.10300
C3263       C  0.69635637  0.90430622  0.96348126    -0.03500
C3264       C  0.67129018  0.90038442  0.96975122    -0.09300
C3265       C  0.67825016  0.92215360  0.97749705    -0.17000
C3266       C  0.71026968  0.94809436  0.97905117     0.25200
C3267       C  0.73520253  0.95250990  0.97276711    -0.18600
C3268       C  0.72835346  0.93082075  0.96504447    -0.07500
C3269       C  0.71793859  0.96996176  0.98717096    -0.14000
C3270       C  0.72582571  0.98884184  0.99389055    -0.13700
C3271       C  0.73700219  0.51354226  0.00163184     0.25100
C3272       C  0.76670598  0.54396553  0.00095044    -0.19100
C3273       C  0.77644499  0.56676020  0.00853327    -0.07600
C3274       C  0.75643082  0.55938764  0.01686613    -0.03700
C3275       C  0.72684365  0.52847737  0.01752595    -0.09000
C3276       C  0.71726106  0.50571659  0.00996695    -0.16600
H3277       H  0.64643511  0.88017015  0.96878873     0.11500
H3278       H  0.65875693  0.91852346  0.98232996     0.10800
H3279       H  0.76005770  0.97253231  0.97390346     0.10800
H3280       H  0.74825162  0.93461613  0.96037775     0.11300
H3281       H  0.78216872  0.55021186  0.99451564     0.11300
H3282       H  0.79923571  0.59041096  0.00777068     0.11300
H3283       H  0.71092149  0.52195854  0.02385310     0.11400
H3284       H  0.69429543  0.48217162  0.01057961     0.10300
C3285       C  0.89941094  0.69363708  0.01575376    -0.03500
C3286       C  0.93343071  0.71020453  0.01722773    -0.09300
C3287       C  0.95472574  0.72112233  0.00917405    -0.17000
C3288       C  0.94245830  0.71565790  0.99951197     0.25200
C3289       C  0.90866942  0.69902068  0.99793838    -0.18600
C3290       C  0.88724354  0.68811233  0.00600381    -0.07500
C3291       C  0.96472104  0.72743160  0.99126686    -0.14000
C3292       C  0.48425940  0.73766588  0.98459426    -0.13700
C3293       C  0.50810931  0.74998948  0.97677440     0.25100
C3294       C  0.49812576  0.74672709  0.96686325    -0.19100
C3295       C  0.52121336  0.75786142  0.95927478    -0.07600
C3296       C  0.55467689  0.77243821  0.96150297    -0.03700
C3297       C  0.56450449  0.77604485  0.97149438    -0.09000
C3298       C  0.54135729  0.76486696  0.97906749    -0.16600
H3299       H  0.94369448  0.71510521  0.02461594     0.11500
H3300       H  0.98080770  0.73400641  0.01048892     0.10800
H3301       H  0.89889658  0.69465272  0.99048289     0.10800
H3302       H  0.86123298  0.67554374  0.00460779     0.11300
H3303       H  0.47246480  0.73526492  0.96499900     0.11300
H3304       H  0.51279828  0.75460981  0.95167108     0.11300
H3305       H  0.59003076  0.78702895  0.97347107     0.11400
H3306       H  0.54937784  0.76752751  0.98671440     0.10300
C3307       C  0.94550900  0.92859729  0.11495208    -0.03500
C3308       C  0.95207843  0.90191359  0.11615205    -0.09300
C3309       C  0.93809172  0.87520345  0.10973018    -0.17000
C3310       C  0.91753277  0.87500225  0.10204708     0.25200
C3311       C  0.91127814  0.90179959  0.10074792    -0.18600
C3312       C  0.92530136  0.92853525  0.10714897    -0.07500
C3313       C  0.90328308  0.84753656  0.09542566    -0.14000
C3314       C  0.89252727  0.82469756  0.08982390    -0.13700
C3315       C  0.88208370  0.79809675  0.08298050     0.25100
C3316       C  0.90552589  0.79452997  0.07795664    -0.19100
C3317       C  0.89597128  0.76929497  0.07116763    -0.07600
C3318       C  0.86269209  0.74711270  0.06926652    -0.03700
C3319       C  0.83918729  0.75055467  0.07445912    -0.09000
C3320       C  0.84887042  0.77596558  0.08126803    -0.16600
H3321       H  0.96806170  0.90184424  0.12202593     0.11500
H3322       H  0.94333402  0.85474582  0.11074451     0.10800
H3323       H  0.89557633  0.90201960  0.09479891     0.10800
H3324       H  0.92008164  0.94900332  0.10609447     0.11300
H3325       H  0.93128251  0.81144520  0.07923874     0.11300
H3326       H  0.91476828  0.76740008  0.06734543     0.11300
H3327       H  0.81339666  0.73395951  0.07316878     0.11400
H3328       H  0.83050120  0.77848879  0.08513621     0.10300
C3329       C  0.86209079  0.62244979  0.06506572    -0.03500
C3330       C  0.88996304  0.61973777  0.06346410    -0.09300
C3331       C  0.89948223  0.60261166  0.07043688    -0.17000
C3332       C  0.88137078  0.58797750  0.07911928     0.25200
C3333       C  0.85292718  0.58941765  0.08059942    -0.18600
C3334       C  0.84325682  0.60639214  0.07361332    -0.07500
C3335       C  0.89295198  0.57313335  0.08671669    -0.14000
C3336       C  0.90394995  0.56213541  0.09309863    -0.13700
C3337       C  0.91856154  0.54999351  0.10053614     0.25100
C3338       C  0.90069544  0.53062158  0.10885513    -0.19100
C3339       C  0.91478556  0.51807803  0.11586809    -0.07600
C3340       C  0.94705996  0.52509348  0.11468640    -0.03700
C3341       C  0.96488901  0.54487751  0.10638550    -0.09000
C3342       C  0.95076328  0.55724309  0.09937299    -0.16600
H3343       H  0.90490647  0.63158770  0.05694343     0.11500
H3344       H  0.92147357  0.60157577  0.06917691     0.10800
H3345       H  0.83866989  0.57817839  0.08727857     0.10800
H3346       H  0.82170941  0.60800133  0.07509444     0.11300
H3347       H  0.87572232  0.52474080  0.10983387     0.11300
H3348       H  0.89913159  0.00071673  0.12164808     0.11300
H3349       H  0.48975410  0.55058491  0.10529137     0.11400
H3350       H  0.96488028  0.57220164  0.09298615     0.10300
C3351       C  0.54300564  0.02517117  0.11717218    -0.03500
C3352       C  0.54638557  0.00809385  0.10937532    -0.09300
C3353       C  0.57450509  0.02349197  0.10355772    -0.17000
C3354       C  0.59891881  0.55465323  0.10464121     0.25200
C3355       C  0.59647523  0.57172504  0.11258883    -0.18600
C3356       C  0.56846586  0.55653114  0.11850351    -0.07500
C3357       C  0.62678230  0.57067656  0.09816966    -0.14000
C3358       C  0.64852626  0.58285648  0.09216371    -0.13700
C3359       C  0.67247810  0.59587385  0.08437774     0.25100
C3360       C  0.66387032  0.60226333  0.07486596    -0.19100
C3361       C  0.68634391  0.61324704  0.06711976    -0.07600
C3362       C  0.71787970  0.61820013  0.06879661    -0.03700
C3363       C  0.72652771  0.61224411  0.07842033    -0.09000
C3364       C  0.70389168  0.60101341  0.08615345    -0.16600
H3365       H  0.52715878  0.98285895  0.10776552     0.11500
H3366       H  0.57652014  0.01006043  0.09749468     0.10800
H3367       H  0.61594189  0.59692816  0.11411062     0.10800
H3368       H  0.56659645  0.57035284  0.12447521     0.11300
H3369       H  0.63959865  0.59828937  0.07340220     0.11300
H3370       H  0.67893679  0.61759969  0.05980134     0.11300
H3371       H  0.75051537  0.61551788  0.07992100     0.11400
H3372       H  0.71075146  0.59594172  0.09347486     0.10300
C3373       C  0.84140235  0.61482756  0.17669753    -0.03500
C3374       C  0.82410362  0.59103310  0.16955562    -0.09300
C3375       C  0.83976641  0.57838479  0.16399653    -0.17000
C3376       C  0.87295255  0.58954817  0.16548900     0.25200
C3377       C  0.89056542  0.61385526  0.17246487    -0.18600
C3378       C  0.87489609  0.62653297  0.17802260    -0.07500
C3379       C  0.88871193  0.57575739  0.15991344    -0.14000
C3380       C  0.90131834  0.56380858  0.15514092    -0.13700
C3381       C  0.91609653  0.54965542  0.14927621     0.25100
C3382       C  0.90814329  0.51593634  0.15095522    -0.19100
C3383       C  0.92244891  0.50225179  0.14520927    -0.07600
C3384       C  0.94459850  0.52207664  0.13767193    -0.03700
C3385       C  0.95263095  0.55591700  0.13606421    -0.09000
C3386       C  0.93838992  0.56960039  0.14182838    -0.16600
H3387       H  0.79832102  0.58152440  0.16847209     0.11500
H3388       H  0.82590933  0.55961670  0.15861226     0.10800
H3389       H  0.91630224  0.62283674  0.17364611     0.10800
H3390       H  0.88882475  0.64532122  0.18339219     0.11300
H3391       H  0.89090105  0.50025012  0.15669090     0.11300
H3392       H  0.91641547  0.97798211  0.14702249     0.11300
H3393       H  0.97008905  0.57177752  0.13040474     0.11400
H3394       H  0.94479831  0.59574073  0.14048855     0.10300
C3395       C  0.83585501  0.70945096  0.17569538    -0.03500
C3396       C  0.85705900  0.71316216  0.16806235    -0.09300
C3397       C  0.87219418  0.74305195  0.16219341    -0.17000
C3398       C  0.86601845  0.76927925  0.16388427     0.25200
C3399       C  0.84414582  0.76528200  0.17129505    -0.18600
C3400       C  0.82899564  0.73543620  0.17714850    -0.07500
C3401       C  0.88243686  0.80057653  0.15816234    -0.14000
C3402       C  0.89581063  0.82733849  0.15360892    -0.13700
C3403       C  0.91105571  0.85945405  0.14827035     0.25100
C3404       C  0.89470181  0.86534225  0.14033529    -0.19100
C3405       C  0.90946206  0.89649647  0.13509897    -0.07600
C3406       C  0.94095178  0.92187986  0.13766669    -0.03700
C3407       C  0.95691014  0.91610395  0.14578260    -0.09000
C3408       C  0.94204706  0.88496814  0.15105111    -0.16600
H3409       H  0.86259502  0.69334186  0.16683964     0.11500
H3410       H  0.88901869  0.74589560  0.15644867     0.10800
H3411       H  0.83904933  0.78535687  0.17260793     0.10800
H3412       H  0.81215915  0.73273611  0.18286248     0.11300
H3413       H  0.87057474  0.84585324  0.13819387     0.11300
H3414       H  0.89639009  0.90071094  0.12901507     0.11300
H3415       H  0.48112933  0.93541399  0.14789688     0.11400
H3416       H  0.95479326  0.88070720  0.15723157     0.10300
C3417       C  0.53816314  0.01846202  0.13984942    -0.03500
C3418       C  0.56216287  0.00942786  0.13862477    -0.05700
C3419       C  0.59005174  0.02282030  0.14460420    -0.17000
C3420       C  0.59595381  0.54556442  0.15133698     0.25200
C3421       C  0.57062114  0.55199921  0.15321717    -0.18600
C3422       C  0.54252636  0.53830645  0.14728879    -0.07500
C3423       C  0.62564727  0.56084226  0.15710370    -0.14000
C3424       C  0.65102698  0.57328102  0.16167346    -0.13700
C3425       C  0.68159074  0.58723571  0.16699710     0.25100
C3426       C  0.68636050  0.60570036  0.17543071    -0.19100
C3427       C  0.71564200  0.61824522  0.18074490    -0.07600
C3428       C  0.74036486  0.61195940  0.17780384    -0.03700
C3429       C  0.73574943  0.59433385  0.16915673    -0.09000
C3430       C  0.70654536  0.58195929  0.16381481    -0.16600
H3431       H  0.55952807  0.99241389  0.13293711     0.11500
H3432       H  0.60861195  0.01611084  0.14341442     0.10800
H3433       H  0.57279907  0.56800831  0.15915828     0.10800
H3434       H  0.52351847  0.54417416  0.14869735     0.11300
H3435       H  0.66742889  0.61032686  0.17791655     0.11300
H3436       H  0.71895307  0.63286511  0.18715741     0.11300
H3437       H  0.75445122  0.58961109  0.16659797     0.11400
H3438       H  0.70331252  0.56798205  0.15725104     0.10300
C3439       C  0.89123580  0.62244239  0.62886071    -0.03500
C3440       C  0.92315966  0.62819518  0.63031274    -0.09300
C3441       C  0.93024914  0.61201536  0.63824442    -0.17000
C3442       C  0.90558072  0.58985296  0.64481238     0.25200
C3443       C  0.87369975  0.58361998  0.64335919    -0.18600
C3444       C  0.86654807  0.59977747  0.63545322    -0.07500
C3445       C  0.91301373  0.57373540  0.65308929    -0.14000
C3446       C  0.91940741  0.56028140  0.65999644    -0.13700
C3447       C  0.92748962  0.54405964  0.66809198     0.25100
C3448       C  0.90367204  0.52273185  0.67500005    -0.19100
C3449       C  0.91130326  0.50602503  0.68264241    -0.07600
C3450       C  0.94291755  0.51041210  0.68346439    -0.03700
C3451       C  0.96831213  0.03340188  0.67672956    -0.09000
C3452       C  0.95911613  0.54906109  0.66894773    -0.16600
H3453       H  0.94277186  0.64560339  0.62542620     0.11500
H3454       H  0.95502847  0.61702115  0.63930422     0.10800
H3455       H  0.85440377  0.56648848  0.64838885     0.10800
H3456       H  0.84172728  0.59478502  0.63458140     0.11300
H3457       H  0.87909956  0.51867917  0.67440812     0.11300
H3458       H  0.89229425  0.48924506  0.68779499     0.11300
H3459       H  0.99311996  0.03835528  0.67760429     0.11400
H3460       H  0.98074078  0.06768147  0.66402439     0.10300
C3461       C  0.94919401  0.89096214  0.68294859    -0.03500
C3462       C  0.91756768  0.86317339  0.68187026    -0.09300
C3463       C  0.91018188  0.84187766  0.67400944    -0.17000
C3464       C  0.93422967  0.84801314  0.66711506     0.25200
C3465       C  0.96596987  0.87502031  0.66824823    -0.18600
C3466       C  0.97346980  0.89636300  0.67612962    -0.07500
C3467       C  0.92596515  0.82714217  0.65873118    -0.14000
C3468       C  0.91820247  0.80950743  0.65171385    -0.13700
C3469       C  0.90831415  0.78776687  0.64349260     0.25100
C3470       C  0.92971803  0.79507886  0.63560648    -0.19100
C3471       C  0.92066119  0.77292903  0.62787353    -0.07600
C3472       C  0.88995077  0.74328016  0.62791995    -0.03700
C3473       C  0.86828551  0.73668534  0.63575225    -0.09000
C3474       C  0.87748761  0.75873384  0.64350008    -0.16600
H3475       H  0.89830821  0.85822250  0.68698941     0.11500
H3476       H  0.88555448  0.82098335  0.67320986     0.10800
H3477       H  0.98475782  0.87994857  0.66294088     0.10800
H3478       H  0.99798415  0.91760569  0.67671166     0.11300
H3479       H  0.95361116  0.81756425  0.63552420     0.11300
H3480       H  0.93786743  0.77872653  0.62194856     0.11300
H3481       H  0.84462181  0.71392072  0.63606640     0.11400
H3482       H  0.86076373  0.75283001  0.64958136     0.10300
C3483       C  0.74480606  0.61096554  0.62832193    -0.03500
C3484       C  0.75453655  0.61932743  0.63817920    -0.09300
C3485       C  0.73127962  0.60739635  0.64575719    -0.17000
C3486       C  0.69809505  0.58687165  0.64358650     0.25200
C3487       C  0.68819455  0.57893484  0.63378299    -0.18600
C3488       C  0.71132650  0.59095596  0.62620225    -0.07500
C3489       C  0.67424760  0.57328626  0.65141993    -0.14000
C3490       C  0.65446356  0.56167482  0.65803012    -0.13700
C3491       C  0.63168034  0.54850061  0.66615072     0.25100
C3492       C  0.59883054  0.53884896  0.66458425    -0.19100
C3493       C  0.57717777  0.52760073  0.67258643    -0.07600
C3494       C  0.58824609  0.52623437  0.68227307    -0.03700
C3495       C  0.62113333  0.53533344  0.68373500    -0.09000
C3496       C  0.64263194  0.54624436  0.67572182    -0.16600
H3497       H  0.78009643  0.63467587  0.64004679     0.11500
H3498       H  0.73921795  0.61376229  0.65332376     0.10800
H3499       H  0.66261435  0.56305857  0.63200919     0.10800
H3500       H  0.70301389  0.58385548  0.61870579     0.11300
H3501       H  0.59006944  0.54050980  0.65720870     0.11300
H3502       H  0.55204331  0.52096543  0.67123739     0.11300
H3503       H  0.63307048  0.05413418  0.69156256     0.11400
H3504       H  0.66795239  0.55349299  0.67701853     0.10300
C3505       C  0.70494790  0.86629439  0.53259166    -0.03500
C3506       C  0.72532869  0.86519395  0.54015536    -0.09300
C3507       C  0.74038338  0.89142533  0.54668443    -0.17000
C3508       C  0.73505207  0.91888220  0.54573440     0.25200
C3509       C  0.71459071  0.92004594  0.53823774    -0.18600
C3510       C  0.69948259  0.89378627  0.53170617    -0.07500
C3511       C  0.74954813  0.94518756  0.55268963    -0.14000
C3512       C  0.76011888  0.96654785  0.55874694    -0.13700
C3513       C  0.77017648  0.99125305  0.56615238     0.25100
C3514       C  0.79838719  0.51995150  0.56542848    -0.19100
C3515       C  0.80801350  0.54504318  0.57232012    -0.07600
C3516       C  0.78840195  0.53971245  0.58061263    -0.03700
C3517       C  0.75961329  0.50836878  0.58203103    -0.09000
C3518       C  0.74796450  0.98736930  0.57341670    -0.16600
H3519       H  0.72982209  0.84417912  0.54094161     0.11500
H3520       H  0.75601938  0.89021424  0.55249846     0.10800
H3521       H  0.71009243  0.94106545  0.53750334     0.10800
H3522       H  0.68341950  0.89479316  0.52601109     0.11300
H3523       H  0.81331931  0.52475051  0.55894944     0.11300
H3524       H  0.83021408  0.56893097  0.57099619     0.11300
H3525       H  0.74405288  0.50335167  0.58836269     0.11400
H3526       H  0.72365722  0.96548365  0.57363522     0.10300
C3527       C  0.93031113  0.67072216  0.57821078    -0.03500
C3528       C  0.96196826  0.67684387  0.58047517    -0.09300
C3529       C  0.98490677  0.68551832  0.57297609    -0.17000
C3530       C  0.97665380  0.68828727  0.56310009     0.25200
C3531       C  0.94485598  0.68101029  0.56071350    -0.18600
C3532       C  0.92174010  0.67211597  0.56821831    -0.07500
C3533       C  0.00160446  0.70105335  0.55559832    -0.14000
C3534       C  0.52404557  0.71413563  0.54982925    -0.13700
C3535       C  0.55214682  0.73199468  0.54346975     0.25100
C3536       C  0.55486689  0.71730639  0.53497536    -0.19100
C3537       C  0.58237597  0.73481520  0.52889322    -0.07600
C3538       C  0.60727926  0.76735766  0.53119712    -0.03700
C3539       C  0.60451730  0.78176575  0.53977426    -0.09000
C3540       C  0.57708427  0.76423284  0.54585498    -0.16600
H3541       H  0.96929589  0.67572123  0.58807642     0.11500
H3542       H  0.00940704  0.69105839  0.57491865     0.10800
H3543       H  0.93819835  0.68313854  0.55309258     0.10800
H3544       H  0.89758390  0.66754499  0.56623320     0.11300
H3545       H  0.53585002  0.69229282  0.53308799     0.11300
H3546       H  0.58435713  0.72287922  0.52244409     0.11300
H3547       H  0.62350069  0.80672284  0.54172203     0.11400
H3548       H  0.57533232  0.77581788  0.55242592     0.10300
C3549       C  0.78174205  0.66140114  0.57859544    -0.03500
C3550       C  0.80255191  0.67973012  0.57059803    -0.09300
C3551       C  0.79274424  0.69531157  0.56319760    -0.17000
C3552       C  0.76216133  0.69292194  0.56373293     0.25200
C3553       C  0.74151874  0.67518238  0.57172744    -0.18600
C3554       C  0.75116726  0.65945109  0.57909688    -0.07500
C3555       C  0.75166511  0.70838180  0.55607882    -0.14000
C3556       C  0.74148507  0.72087847  0.54994933    -0.13700
C3557       C  0.72780056  0.73563728  0.54313471     0.25100
C3558       C  0.69494671  0.72642540  0.54399555    -0.19100
C3559       C  0.68185988  0.74204761  0.53781007    -0.07600
C3560       C  0.70143672  0.76685298  0.53065537    -0.03700
C3561       C  0.73430158  0.77577248  0.52972232    -0.09000
C3562       C  0.74741376  0.76013369  0.53593487    -0.16600
H3563       H  0.82614214  0.68152893  0.56996769     0.11500
H3564       H  0.80889606  0.70900095  0.55703208     0.10800
H3565       H  0.71783744  0.67328946  0.57222754     0.10800
H3566       H  0.73462674  0.64567170  0.58517063     0.11300
H3567       H  0.67958961  0.70756434  0.54955602     0.11300
H3568       H  0.65648568  0.73496401  0.53864283     0.11300
H3569       H  0.74991695  0.79531272  0.52436217     0.11400
H3570       H  0.77291937  0.76756667  0.53525173     0.10300
C3571       C  0.70710476  0.87496310  0.50988090    -0.03500
C3572       C  0.73938378  0.89924590  0.51217533    -0.09300
C3573       C  0.75485115  0.93049314  0.50695211    -0.17000
C3574       C  0.73841441  0.93759762  0.49928219     0.25200
C3575       C  0.70659982  0.91313213  0.49678092    -0.18600
C3576       C  0.69106017  0.88194794  0.50203114    -0.07500
C3577       C  0.75411109  0.96985442  0.49393205    -0.14000
C3578       C  0.76660444  0.99644749  0.48922635    -0.13700
C3579       C  0.78086730  0.52611217  0.48277817     0.25100
C3580       C  0.76308986  0.53082479  0.47503127    -0.19100
C3581       C  0.77727790  0.56076491  0.46915258    -0.07600
C3582       C  0.80957982  0.58615956  0.47088646    -0.03700
C3583       C  0.82701839  0.58161455  0.47880217    -0.09000
C3584       C  0.81278010  0.55169485  0.48469480    -0.16600
H3585       H  0.75258569  0.89406127  0.51801422     0.11500
H3586       H  0.77958304  0.94907852  0.50889378     0.10800
H3587       H  0.69372403  0.91825334  0.49081490     0.10800
H3588       H  0.66628006  0.86350691  0.50009025     0.11300
H3589       H  0.73831477  0.51130910  0.47351251     0.11300
H3590       H  0.76313375  0.56403217  0.46322058     0.11300
H3591       H  0.85190006  0.60093685  0.48028544     0.11400
H3592       H  0.82674372  0.54840044  0.49068502     0.10300
C3593       C  0.90699691  0.68346496  0.47071143    -0.03500
C3594       C  0.91213269  0.70657774  0.47792927    -0.09300
C3595       C  0.94119116  0.72118194  0.48336919    -0.17000
C3596       C  0.96508454  0.71245411  0.48169499     0.25200
C3597       C  0.95954615  0.68857081  0.47472534    -0.18600
C3598       C  0.93059224  0.67405371  0.46927600    -0.07500
C3599       C  0.99540583  0.72806799  0.48705235    -0.14000
C3600       C  0.52089533  0.74055096  0.49150337    -0.13700
C3601       C  0.55089993  0.75454813  0.49702841     0.25100
C3602       C  0.57647216  0.74989547  0.49407034    -0.19100
C3603       C  0.60493074  0.76196242  0.49976962    -0.07600
C3604       C  0.60799285  0.77867690  0.50849507    -0.03700
C3605       C  0.58272202  0.78439037  0.51119476    -0.09000
C3606       C  0.55421786  0.77208605  0.50554780    -0.16600
H3607       H  0.89411110  0.71402865  0.47913176     0.11500
H3608       H  0.94519006  0.73953010  0.48878194     0.10800
H3609       H  0.97775105  0.68144572  0.47343090     0.10800
H3610       H  0.92675960  0.65584523  0.46383653     0.11300
H3611       H  0.57419023  0.73646299  0.48745969     0.11300
H3612       H  0.62415753  0.75744868  0.49751161     0.11300
H3613       H  0.58489619  0.79809620  0.51772671     0.11400
H3614       H  0.53467465  0.77601818  0.50786885     0.10300
C3615       C  0.70510358  0.77657212  0.50806903    -0.03500
C3616       C  0.69807544  0.74289051  0.50886004    -0.09300
C3617       C  0.71566303  0.73247572  0.50330835    -0.17000
C3618       C  0.74031417  0.75556167  0.49688414     0.25200
C3619       C  0.74697045  0.78903587  0.49590805    -0.18600
C3620       C  0.72931027  0.79946793  0.50144935    -0.07500
C3621       C  0.75847024  0.74460070  0.49128110    -0.14000
C3622       C  0.77232560  0.73366805  0.48666230    -0.13700
C3623       C  0.78702956  0.71868595  0.48114390     0.25100
C3624       C  0.80748407  0.73659073  0.47311679    -0.19100
C3625       C  0.82060553  0.72137502  0.46752609    -0.07600
C3626       C  0.81312841  0.68797609  0.46986142    -0.03700
C3627       C  0.79314888  0.67041976  0.47804120    -0.09000
C3628       C  0.78007715  0.68567009  0.48363466    -0.16600
H3629       H  0.67926219  0.72481228  0.51386042     0.11500
H3630       H  0.71018566  0.70647488  0.50407167     0.10800
H3631       H  0.76593726  0.80708173  0.49093803     0.10800
H3632       H  0.73513399  0.82559056  0.50078605     0.11300
H3633       H  0.81314341  0.76220216  0.47115225     0.11300
H3634       H  0.83665716  0.73569940  0.46140430     0.11300
H3635       H  0.78719689  0.64471076  0.47998806     0.11400
H3636       H  0.76427726  0.67159893  0.48983619     0.10300
C3637       C  0.92326911  0.94084481  0.86487096    -0.03500
C3638       C  0.92056857  0.91750050  0.87245452    -0.09300
C3639       C  0.89366327  0.90287239  0.87878447    -0.17000
C3640       C  0.86934403  0.91169142  0.87765972     0.25200
C3641       C  0.87188354  0.93500498  0.87009718    -0.18600
C3642       C  0.89875876  0.94953958  0.86371534    -0.07500
C3643       C  0.84238853  0.89743255  0.88447177    -0.14000
C3644       C  0.82079330  0.88560627  0.89052347    -0.13700
C3645       C  0.79603813  0.87209984  0.89806923     0.25100
C3646       C  0.76358665  0.86183333  0.89559766    -0.19100
C3647       C  0.73982340  0.84996331  0.90300401    -0.07600
C3648       C  0.74829831  0.84838599  0.91299517    -0.03700
C3649       C  0.78089385  0.85815868  0.91537480    -0.09000
C3650       C  0.80456221  0.86989767  0.90795555    -0.16600
H3651       H  0.93930369  0.91058725  0.87345616     0.11500
H3652       H  0.89198768  0.88493979  0.88462020     0.10800
H3653       H  0.85330756  0.94217872  0.86920235     0.10800
H3654       H  0.90148010  0.46789311  0.85804014     0.11300
H3655       H  0.75673041  0.86342938  0.88796535     0.11300
H3656       H  0.71499045  0.84274875  0.90092990     0.11300
H3657       H  0.78822986  0.85720671  0.92298474     0.11400
H3658       H  0.82960467  0.87770753  0.90994886     0.10300
C3659       C  0.59933804  0.83530948  0.91260343    -0.03500
C3660       C  0.56657801  0.82622999  0.91080632    -0.09300
C3661       C  0.55866391  0.84431058  0.90373434    -0.17000
C3662       C  0.58327262  0.87179697  0.89835693     0.25200
C3663       C  0.61599197  0.88129789  0.90011774    -0.18600
C3664       C  0.62400978  0.86313379  0.90718693    -0.07500
C3665       C  0.57450011  0.88979366  0.89101168    -0.14000
C3666       C  0.56466442  0.90313493  0.88504062    -0.13700
C3667       C  0.55062594  0.91751563  0.87819437     0.25100
C3668       C  0.55539945  0.94978153  0.87957544    -0.19100
C3669       C  0.54056547  0.96313861  0.87319233    -0.07600
C3670       C  0.52089474  0.94441963  0.86533425    -0.03700
C3671       C  0.01605186  0.91198380  0.86400162    -0.09000
C3672       C  0.53094108  0.89865571  0.87039379    -0.16600
H3673       H  0.54694723  0.80486943  0.91478077     0.11500
H3674       H  0.53326449  0.83671271  0.90242196     0.10800
H3675       H  0.63525499  0.90257527  0.89599803     0.10800
H3676       H  0.64945781  0.87078601  0.90838064     0.11300
H3677       H  0.57037692  0.96450112  0.88562527     0.11300
H3678       H  0.54811905  0.48857009  0.87340532     0.11300
H3679       H  0.00049830  0.89689754  0.85810026     0.11400
H3680       H  0.52680595  0.87351306  0.86931967     0.10300
C3681       C  0.60691714  0.71521435  0.91127710    -0.03500
C3682       C  0.63118562  0.71950013  0.90460076    -0.09300
C3683       C  0.62368813  0.69660840  0.89711817    -0.17000
C3684       C  0.59193527  0.66928767  0.89625922     0.25200
C3685       C  0.56786547  0.66473114  0.90291424    -0.18600
C3686       C  0.57523017  0.68741458  0.91035586    -0.07500
C3687       C  0.58329247  0.64556093  0.88861403    -0.14000
C3688       C  0.57195880  0.62346665  0.88277738    -0.13700
C3689       C  0.55494937  0.59534009  0.87650157     0.25100
C3690       C  0.02216707  0.57148352  0.87846850    -0.19100
C3691       C  0.00544227  0.54376657  0.87251308    -0.07600
C3692       C  0.52126447  0.53985562  0.86448622    -0.03700
C3693       C  0.55420517  0.56362823  0.86261296    -0.09000
C3694       C  0.57094762  0.59132965  0.86858069    -0.16600
H3695       H  0.65576679  0.74069035  0.90507946     0.11500
H3696       H  0.64251581  0.70032176  0.89198981     0.10800
H3697       H  0.54323453  0.64365149  0.90231691     0.10800
H3698       H  0.55589561  0.68325756  0.91533294     0.11300
H3699       H  0.00960566  0.57430102  0.88461092     0.11300
H3700       H  0.98013473  0.52552103  0.87410477     0.11300
H3701       H  0.56702092  0.56051649  0.85660617     0.11400
H3702       H  0.59634240  0.60943949  0.86706256     0.10300
C3703       C  0.72204585  0.85810663  0.78071244    -0.03500
C3704       C  0.72376564  0.84369409  0.77198764    -0.09300
C3705       C  0.75094381  0.86053313  0.76579339    -0.17000
C3706       C  0.77676950  0.89224971  0.76815866     0.25200
C3707       C  0.77521626  0.90709739  0.77678005    -0.18600
C3708       C  0.74792957  0.89022857  0.78299248    -0.07500
C3709       C  0.80441956  0.90939391  0.76159282    -0.14000
C3710       C  0.82623088  0.92157770  0.75558982    -0.13700
C3711       C  0.85052621  0.93343933  0.74789749     0.25100
C3712       C  0.88376551  0.94868671  0.75026131    -0.19100
C3713       C  0.90700194  0.95817508  0.74275932    -0.07600
C3714       C  0.89723883  0.95245551  0.73278541    -0.03700
C3715       C  0.86379906  0.93769434  0.73049305    -0.09000
C3716       C  0.84068416  0.92825778  0.73798945    -0.16600
H3717       H  0.70411625  0.81938283  0.76992191     0.11500
H3718       H  0.75172543  0.84885398  0.75911402     0.10800
H3719       H  0.79490802  0.93178754  0.77865062     0.10800
H3720       H  0.74685036  0.90249354  0.78949047     0.11300
H3721       H  0.89168161  0.95273542  0.75790811     0.11300
H3722       H  0.93250913  0.96942779  0.74478303     0.11300
H3723       H  0.85537049  0.93285248  0.72291095     0.11400
H3724       H  0.81504047  0.91637938  0.73606302     0.10300
C3725       C  0.62492468  0.85584880  0.78022597    -0.03500
C3726       C  0.59348815  0.85001514  0.78232655    -0.09300
C3727       C  0.57756941  0.86142992  0.77564148    -0.17000
C3728       C  0.59255194  0.87810063  0.76668136     0.25200
C3729       C  0.62367085  0.88371158  0.76451780    -0.18600
C3730       C  0.63977366  0.87281138  0.77124209    -0.07500
C3731       C  0.57647129  0.88979411  0.75965876    -0.14000
C3732       C  0.56578012  0.90146596  0.75339302    -0.13700
C3733       C  0.55673292  0.91814837  0.74565013     0.25100
C3734       C  0.58023494  0.94014031  0.73876299    -0.19100
C3735       C  0.57264510  0.95823839  0.73158634    -0.07600
C3736       C  0.54139760  0.95483314  0.73121989    -0.03700
C3737       C  0.51757790  0.93194851  0.73800355    -0.09000
C3738       C  0.52521288  0.91368853  0.74516429    -0.16600
H3739       H  0.58096412  0.83608229  0.78903053     0.11500
H3740       H  0.55345371  0.85685617  0.77739888     0.10800
H3741       H  0.63553587  0.89655897  0.75761420     0.10800
H3742       H  0.66390346  0.87762678  0.76939863     0.11300
H3743       H  0.60471323  0.94384284  0.73906576     0.11300
H3744       H  0.59161087  0.97571437  0.72652673     0.11300
H3745       H  0.49326132  0.92865254  0.73790158     0.11400
H3746       H  0.50676753  0.89667211  0.75043677     0.10300
C3747       C  0.54105257  0.57698964  0.73536727    -0.03500
C3748       C  0.52157727  0.59168127  0.73675929    -0.09300
C3749       C  0.53005040  0.61584095  0.74389495    -0.17000
C3750       C  0.55780028  0.62522226  0.74979799     0.25200
C3751       C  0.57693201  0.61022518  0.74857661    -0.18600
C3752       C  0.56872949  0.58639215  0.74138275    -0.07500
C3753       C  0.56758429  0.65117323  0.75683804    -0.14000
C3754       C  0.57802719  0.67384686  0.76249567    -0.13700
C3755       C  0.59320518  0.70197922  0.76887314     0.25100
C3756       C  0.62722478  0.72227215  0.76889950    -0.19100
C3757       C  0.64232325  0.75003576  0.77489647    -0.07600
C3758       C  0.62357821  0.75784811  0.78090939    -0.03700
C3759       C  0.58948358  0.73726019  0.78097802    -0.09000
C3760       C  0.57433100  0.70941264  0.77496546    -0.16600
H3761       H  0.50029905  0.58511520  0.73216765     0.11500
H3762       H  0.51519768  0.62746550  0.74472712     0.10800
H3763       H  0.59847875  0.61731659  0.75309283     0.10800
H3764       H  0.58407240  0.57535725  0.74050974     0.11300
H3765       H  0.64208798  0.71663408  0.76427506     0.11300
H3766       H  0.66862982  0.76506738  0.77496210     0.11300
H3767       H  0.57468691  0.74299337  0.78559660     0.11400
H3768       H  0.54799316  0.69386121  0.77502091     0.10300
C3769       C  0.52307763  0.94799620  0.84252013    -0.03500
C3770       C  0.55553924  0.95700319  0.84479848    -0.09300
C3771       C  0.57202800  0.94521194  0.83925384    -0.17000
C3772       C  0.55651145  0.92477330  0.83125257     0.25200
C3773       C  0.52445324  0.91641333  0.82878888    -0.18600
C3774       C  0.50786433  0.92805385  0.83437049    -0.07500
C3775       C  0.57341508  0.91231747  0.82559449    -0.14000
C3776       C  0.58706518  0.90135584  0.82084852    -0.13700
C3777       C  0.60223768  0.88716333  0.81512527     0.25100
C3778       C  0.62068808  0.90473683  0.80670536    -0.19100
C3779       C  0.63402947  0.89011367  0.80091171    -0.07600
C3780       C  0.62864151  0.85746544  0.80338083    -0.03700
C3781       C  0.61117348  0.84064062  0.81206061    -0.09000
C3782       C  0.59791212  0.85527022  0.81784916    -0.16600
H3783       H  0.56815687  0.97317697  0.85086604     0.11500
H3784       H  0.59687871  0.95207103  0.84120052     0.10800
H3785       H  0.51221376  0.90073092  0.82259062     0.10800
H3786       H  0.48296485  0.92100963  0.83243570     0.11300
H3787       H  0.62454000  0.92961073  0.80457255     0.11300
H3788       H  0.64838630  0.90423061  0.79447523     0.11300
H3789       H  0.60721246  0.81589345  0.81431031     0.11400
H3790       H  0.58394749  0.84150620  0.82439086     0.10300
C3791       C  0.72166225  0.84982018  0.80360761    -0.03500
C3792       C  0.72549196  0.86841220  0.81198221    -0.09300
C3793       C  0.75381483  0.88037000  0.81777021    -0.17000
C3794       C  0.77855678  0.87370233  0.81529394     0.25200
C3795       C  0.77440676  0.85425670  0.80713879    -0.18600
C3796       C  0.74606607  0.84218662  0.80137602    -0.07500
C3797       C  0.80846481  0.88740034  0.82096455    -0.14000
C3798       C  0.83377676  0.89930638  0.82557201    -0.13700
C3799       C  0.86401686  0.91366227  0.83108392     0.25100
C3800       C  0.86874605  0.89436940  0.83862625    -0.19100
C3801       C  0.89770905  0.90844099  0.84412459    -0.07600
C3802       C  0.92226135  0.94208588  0.84218578    -0.03700
C3803       C  0.91774853  0.96108933  0.83446585    -0.09000
C3804       C  0.88871559  0.94700598  0.82897708    -0.16600
H3805       H  0.70693830  0.87439589  0.81390131     0.11500
H3806       H  0.75661364  0.89521631  0.82409094     0.10800
H3807       H  0.79319461  0.84865115  0.80518357     0.10800
H3808       H  0.74330505  0.82709684  0.79512543     0.11300
H3809       H  0.84996842  0.86850410  0.84029659     0.11300
H3810       H  0.90090355  0.89312076  0.84992603     0.11300
H3811       H  0.93787926  0.48531611  0.83232526     0.11400
H3812       H  0.88542367  0.96219995  0.82315009     0.10300
C3813       C  0.51725880  0.54266359  0.84190376    -0.03500
C3814       C  0.53796606  0.54720145  0.83402637    -0.09300
C3815       C  0.55228499  0.57739146  0.82826977    -0.17000
C3816       C  0.54581775  0.60320216  0.83028495     0.25200
C3817       C  0.52479884  0.59862240  0.83804609    -0.18600
C3818       C  0.51049746  0.56846495  0.84381036    -0.07500
C3819       C  0.56100553  0.63447747  0.82445453    -0.14000
C3820       C  0.57419775  0.66080525  0.81963994    -0.13700
C3821       C  0.59053276  0.69239065  0.81398524     0.25100
C3822       C  0.57876788  0.71504316  0.81402525    -0.19100
C3823       C  0.59486952  0.74586646  0.80861127    -0.07600
C3824       C  0.62289775  0.75431023  0.80315085    -0.03700
C3825       C  0.63445727  0.73144616  0.80304921    -0.09000
C3826       C  0.61836739  0.70062737  0.80846420    -0.16600
H3827       H  0.54356916  0.52766508  0.83246516     0.11500
H3828       H  0.56855061  0.58069068  0.82229169     0.10800
H3829       H  0.51955110  0.61837769  0.83965767     0.10800
H3830       H  0.99424617  0.56528646  0.84978537     0.11300
H3831       H  0.55708905  0.70880915  0.81819441     0.11300
H3832       H  0.58498470  0.76267331  0.80847809     0.11300
H3833       H  0.65587839  0.73749819  0.79877148     0.11400
H3834       H  0.62761042  0.68324341  0.80834710     0.10300
C3835       C  0.94520933  0.88973152  0.24309719    -0.03500
C3836       C  0.91367705  0.88203214  0.24004181    -0.09300
C3837       C  0.89836067  0.86046057  0.23223824    -0.17000
C3838       C  0.91456994  0.84676724  0.22736649     0.25200
C3839       C  0.94626212  0.85515523  0.23018112    -0.18600
C3840       C  0.96146192  0.87640869  0.23798222    -0.07500
C3841       C  0.89820601  0.82219876  0.21997302    -0.14000
C3842       C  0.88522822  0.79944168  0.21437396    -0.13700
C3843       C  0.86975145  0.77011653  0.20848307     0.25100
C3844       C  0.88845269  0.76241214  0.20240322    -0.19100
C3845       C  0.87349208  0.73271790  0.19717883    -0.07600
C3846       C  0.83978184  0.71049044  0.19805439    -0.03700
C3847       C  0.82116021  0.71842542  0.20408841    -0.09000
C3848       C  0.83607544  0.74813903  0.20927323    -0.16600
H3849       H  0.90058770  0.89190616  0.24384185     0.11500
H3850       H  0.87370092  0.85392501  0.23014508     0.10800
H3851       H  0.95899369  0.84464605  0.22648556     0.10800
H3852       H  0.98588860  0.88210821  0.24007638     0.11300
H3853       H  0.91456944  0.77913602  0.20178737     0.11300
H3854       H  0.88813228  0.72692232  0.19250961     0.11300
H3855       H  0.79504837  0.70194340  0.20464682     0.11400
H3856       H  0.82140230  0.75383821  0.21396146     0.10300
C3857       C  0.84250003  0.61247892  0.19917835    -0.03500
C3858       C  0.83429938  0.57876759  0.19811335    -0.09300
C3859       C  0.84935676  0.56449386  0.20401786    -0.17000
C3860       C  0.87276479  0.58378894  0.21103068     0.25200
C3861       C  0.88112959  0.61748695  0.21209526    -0.18600
C3862       C  0.86592737  0.63173381  0.20622714    -0.07500
C3863       C  0.88729126  0.56871032  0.21740072    -0.14000
C3864       C  0.89909141  0.55693286  0.22321439    -0.13700
C3865       C  0.91318722  0.54513935  0.23086246     0.25100
C3866       C  0.92260890  0.56173376  0.23976043    -0.19100
C3867       C  0.93626961  0.55082562  0.24730193    -0.07600
C3868       C  0.94094191  0.52316189  0.24605923    -0.03700
C3869       C  0.93063108  0.00640187  0.23757081    -0.09000
C3870       C  0.91750562  0.51742975  0.22952886    -0.16600
H3871       H  0.81596222  0.56342394  0.19279408     0.11500
H3872       H  0.84252174  0.53835133  0.20318304     0.10800
H3873       H  0.89915369  0.63261980  0.21752172     0.10800
H3874       H  0.87256801  0.65779304  0.20712675     0.11300
H3875       H  0.91940902  0.58319132  0.24087513     0.11300
H3876       H  0.94347018  0.56433673  0.25409365     0.11300
H3877       H  0.93498678  0.98579762  0.23631395     0.11400
H3878       H  0.91017306  0.00449173  0.22304083     0.10300
C3879       C  0.74555680  0.60641472  0.20067974    -0.03500
C3880       C  0.74477480  0.62151681  0.20937475    -0.09300
C3881       C  0.71885482  0.60452781  0.21601760    -0.17000
C3882       C  0.69341141  0.57209849  0.21410379     0.25200
C3883       C  0.69421013  0.55652428  0.20555032    -0.18600
C3884       C  0.72026096  0.57347239  0.19891072    -0.07500
C3885       C  0.66667329  0.55502978  0.22097254    -0.14000
C3886       C  0.64491934  0.54193703  0.22697289    -0.13700
C3887       C  0.61957828  0.52705530  0.23435124     0.25100
C3888       C  0.59323650  0.53293835  0.23377132    -0.19100
C3889       C  0.56623625  0.01693014  0.24078587    -0.07600
C3890       C  0.56985666  0.49747929  0.24874028    -0.03700
C3891       C  0.59673414  0.49216067  0.24932351    -0.09000
C3892       C  0.62134979  0.50681066  0.24217508    -0.16600
H3893       H  0.76404956  0.64658122  0.21102298     0.11500
H3894       H  0.71862733  0.61674257  0.22264521     0.10800
H3895       H  0.67480311  0.53128506  0.20403407     0.10800
H3896       H  0.72075017  0.56077356  0.19243527     0.11300
H3897       H  0.58895342  0.04657031  0.22749113     0.11300
H3898       H  0.54470774  0.01929785  0.23967287     0.11300
H3899       H  0.59847644  0.47612920  0.25519668     0.11400
H3900       H  0.64164545  0.50212417  0.24271172     0.10300
C3901       C  0.62198795  0.83620771  0.35148384    -0.03500
C3902       C  0.58982562  0.83038101  0.35116354    -0.09300
C3903       C  0.58013154  0.84567687  0.34368351    -0.17000
C3904       C  0.60239484  0.86704510  0.33644139     0.25200
C3905       C  0.63461019  0.87357871  0.33677705    -0.18600
C3906       C  0.64440679  0.85829332  0.34426194    -0.07500
C3907       C  0.59169482  0.88116664  0.32847961    -0.14000
C3908       C  0.58173686  0.89161552  0.32170176    -0.13700
C3909       C  0.56940826  0.90293571  0.31345745     0.25100
C3910       C  0.57308533  0.89544655  0.30384722    -0.19100
C3911       C  0.56106777  0.90626768  0.29579068    -0.07600
C3912       C  0.54530392  0.92486745  0.29725320    -0.03700
C3913       C  0.54162496  0.93218374  0.30696054    -0.09000
C3914       C  0.55355187  0.92117942  0.31501520    -0.16600
H3915       H  0.57193340  0.81352271  0.35658807     0.11500
H3916       H  0.55511823  0.84042284  0.34346310     0.10800
H3917       H  0.65199776  0.89005407  0.33117491     0.10800
H3918       H  0.66931813  0.86327767  0.34427903     0.11300
H3919       H  0.58522951  0.88121814  0.30258069     0.11300
H3920       H  0.56423882  0.90017121  0.28841942     0.11300
H3921       H  0.52931446  0.94615469  0.30833845     0.11400
H3922       H  0.55040942  0.92688659  0.32244581     0.10300
C3923       C  0.54868469  0.56533322  0.29851355    -0.03500
C3924       C  0.53942955  0.58835741  0.30151901    -0.09300
C3925       C  0.55561978  0.60947405  0.30926439    -0.17000
C3926       C  0.58130974  0.60800651  0.31413480     0.25200
C3927       C  0.59086825  0.58529763  0.31123427    -0.18600
C3928       C  0.57463949  0.56402691  0.30344844    -0.07500
C3929       C  0.59713206  0.62966050  0.32219689    -0.14000
C3930       C  0.60739251  0.64859538  0.32890542    -0.13700
C3931       C  0.61606165  0.67138806  0.33679078     0.25100
C3932       C  0.64787737  0.69847852  0.33761378    -0.19100
C3933       C  0.65554456  0.72160377  0.34499559    -0.07600
C3934       C  0.63136339  0.71787803  0.35161249    -0.03700
C3935       C  0.59952726  0.69033377  0.35075069    -0.09000
C3936       C  0.59197236  0.66729855  0.34338360    -0.16600
H3937       H  0.01950777  0.59002032  0.29791566     0.11500
H3938       H  0.54798517  0.62689910  0.31148534     0.10800
H3939       H  0.61069857  0.58394011  0.31500423     0.10800
H3940       H  0.58226368  0.54650834  0.30133646     0.11300
H3941       H  0.66660210  0.70199859  0.33247116     0.11300
H3942       H  0.68021168  0.74269088  0.34539752     0.11300
H3943       H  0.58028399  0.68680214  0.35567105     0.11400
H3944       H  0.56719370  0.64654834  0.34273807     0.10300
C3945       C  0.76859143  0.85327659  0.34866797    -0.03500
C3946       C  0.80256417  0.87478498  0.34932633    -0.09300
C3947       C  0.82213284  0.88398486  0.34089895    -0.17000
C3948       C  0.80814168  0.87178248  0.33169605     0.25200
C3949       C  0.77448061  0.84981116  0.33097423    -0.18600
C3950       C  0.75479430  0.84059866  0.33940300    -0.07500
C3951       C  0.82840466  0.88303839  0.32300162    -0.14000
C3952       C  0.84711056  0.89482847  0.31612907    -0.13700
C3953       C  0.87153178  0.91141936  0.30854239     0.25100
C3954       C  0.86622065  0.92817440  0.30037648    -0.19100
C3955       C  0.89112210  0.94671831  0.29346941    -0.07600
C3956       C  0.92165123  0.94866771  0.29465382    -0.03700
C3957       C  0.92643016  0.93106310  0.30277475    -0.09000
C3958       C  0.90157638  0.91268040  0.30967161    -0.16600
H3959       H  0.81399709  0.88511195  0.35631599     0.11500
H3960       H  0.84815647  0.90107659  0.34153672     0.10800
H3961       H  0.76339139  0.84023211  0.32388206     0.10800
H3962       H  0.72874969  0.82396683  0.33863573     0.11300
H3963       H  0.84308244  0.92748183  0.29945750     0.11300
H3964       H  0.88663292  0.95990276  0.28729628     0.11300
H3965       H  0.94964154  0.93209751  0.30394120     0.11400
H3966       H  0.90603481  0.90000781  0.31599897     0.10300
C3967       C  0.81026012  0.58877510  0.44805751    -0.03500
C3968       C  0.79077740  0.58861395  0.44002893    -0.09300
C3969       C  0.77594129  0.56101163  0.43399426    -0.17000
C3970       C  0.78044160  0.53330118  0.43591810     0.25200
C3971       C  0.80000990  0.53330070  0.44387405    -0.18600
C3972       C  0.81504364  0.56104542  0.44989861    -0.07500
C3973       C  0.76622542  0.50575628  0.42938956    -0.14000
C3974       C  0.75531002  0.98477728  0.42331954    -0.13700
C3975       C  0.74574585  0.96086044  0.41572918     0.25100
C3976       C  0.76973197  0.96153436  0.40977226    -0.19100
C3977       C  0.76104727  0.93808071  0.40248341    -0.07600
C3978       C  0.72814809  0.91361260  0.40103919    -0.03700
C3979       C  0.70405676  0.91349674  0.40694399    -0.09000
C3980       C  0.71286922  0.93702548  0.41427569    -0.16600
H3981       H  0.78684218  0.60977453  0.43847325     0.11500
H3982       H  0.76111189  0.56135996  0.42779267     0.10800
H3983       H  0.80395383  0.51210375  0.44533757     0.10800
H3984       H  0.83056875  0.56100198  0.45592271     0.11300
H3985       H  0.79521893  0.98007151  0.41080956     0.11300
H3986       H  0.78016819  0.93906656  0.39800908     0.11300
H3987       H  0.67853455  0.89499579  0.40599473     0.11400
H3988       H  0.69413609  0.93648087  0.41884220     0.10300
C3989       C  0.58627189  0.78429868  0.40141469    -0.03500
C3990       C  0.59636281  0.78689081  0.41137913    -0.09300
C3991       C  0.57340951  0.77613465  0.41903928    -0.17000
C3992       C  0.54022375  0.76285712  0.41681545     0.25200
C3993       C  0.53019479  0.76099665  0.40694140    -0.18600
C3994       C  0.55294954  0.77159501  0.39931032    -0.07500
C3995       C  0.01594340  0.74986164  0.42452161    -0.14000
C3996       C  0.99339278  0.73718600  0.43025929    -0.13700
C3997       C  0.96474638  0.72062995  0.43643106     0.25100
C3998       C  0.93993610  0.68787564  0.43443610    -0.19100
C3999       C  0.91169743  0.67191578  0.44023578    -0.07600
C4000       C  0.90805178  0.68847288  0.44813269    -0.03700
C4001       C  0.93283282  0.72151586  0.45002122    -0.09000
C4002       C  0.96109014  0.73743340  0.44422897    -0.16600
H4003       H  0.62179459  0.79641226  0.41324424     0.11500
H4004       H  0.58145564  0.77764001  0.42666623     0.10800
H4005       H  0.00461957  0.75079058  0.40512829     0.10800
H4006       H  0.54427808  0.76924707  0.39174024     0.11300
H4007       H  0.94238355  0.67471104  0.42837544     0.11300
H4008       H  0.89283920  0.64651713  0.43862787     0.11300
H4009       H  0.93019570  0.73509237  0.45592219     0.11400
H4010       H  0.97993238  0.76289800  0.44578026     0.10300
C4011       C  0.81155666  0.68702172  0.44712994    -0.03500
C4012       C  0.82975196  0.70984280  0.43938488    -0.09300
C4013       C  0.81533630  0.72332956  0.43288684    -0.17000
C4014       C  0.78246784  0.71382977  0.43398521     0.25200
C4015       C  0.76405734  0.69080071  0.44165547    -0.18600
C4016       C  0.77854897  0.67743299  0.44820979    -0.07500
C4017       C  0.76791531  0.72770268  0.42714649    -0.14000
C4018       C  0.75782595  0.74051435  0.42107169    -0.13700
C4019       C  0.74821021  0.75717584  0.41351090     0.25100
C4020       C  0.72025757  0.75974178  0.41469125    -0.19100
C4021       C  0.71176561  0.77700865  0.40746253    -0.07600
C4022       C  0.73124211  0.79209320  0.39896103    -0.03700
C4023       C  0.75904328  0.78894650  0.39779412    -0.09000
C4024       C  0.76741830  0.77160222  0.40501882    -0.16600
H4025       H  0.85518348  0.71736861  0.43841674     0.11500
H4026       H  0.82979445  0.74107353  0.42697433     0.10800
H4027       H  0.73855327  0.68310033  0.44254024     0.10800
H4028       H  0.76398020  0.65933880  0.45403573     0.11300
H4029       H  0.70523865  0.74874334  0.42124312     0.11300
H4030       H  0.69028062  0.77906026  0.40862885     0.11300
H4031       H  0.77458070  0.80024822  0.39136332     0.11400
H4032       H  0.78913102  0.76978877  0.40403492     0.10300
loop_ 
_geom_bond_atom_site_label_1 
_geom_bond_atom_site_label_2 
_geom_bond_distance 
_geom_bond_site_symmetry_2 
_ccdc_geom_bond_type 
O1           Ni7   1.924       .  S
O1           C22   1.269       .  A
O2          Ni25   1.900       .  S
O2           C11   1.267       .  A
O3           Ni7   1.914       .  S
O3          Ni25   1.907       .  S
O3          Ni19   1.908       .  S
O3           H26   0.968       .  S
C4           O21   1.271       .  A
C4           O13   1.276       .  A
C4          C954   1.479       .  S
O5          Ni24   1.935       .  S
O5           C11   1.273       .  A
O6          Ni24   1.909       .  S
O6            C8   1.270       .  A
Ni7          O10   1.918       .  S
Ni7          O12   1.904       .  S
C8           O18   1.273       .  A
C8          C998   1.482       .  S
O9          Ni25   1.915       .  S
O9           C15   1.275       .  A
O10          C15   1.275       .  A
C11         C921   1.483       .  S
O12          C14   1.268       .  A
O13         Ni24   1.931       .  S
C14          O20   1.270       .  A
C14         C877   1.480       .  S
C15         C910   1.481       .  S
H16          O17   0.966       .  S
O17         Ni25   1.911       .  S
O17         Ni19   1.913       .  S
O17         Ni24   1.915       .  S
O18         Ni19   1.931       .  S
Ni19         O23   1.915       .  S
Ni19         O21   1.901       .  S
O20         Ni25   1.919       .  S
C22          O23   1.267       .  A
C22         C965   1.484       .  S
O27         Ni33   1.923       .  S
O27          C48   1.271       .  A
O28         Ni51   1.898       .  S
O28          C37   1.265       .  A
O29         Ni33   1.922       .  S
O29       Ni3075   1.908   1_545  S
O29       Ni1053   1.915   1_545  S
O29        H2068   0.966       .  S
C30          O47   1.269       .  A
C30          O39   1.271       .  A
C30         C811   1.478       .  S
O31         Ni50   1.926       .  S
O31          C37   1.271       .  A
O32         Ni50   1.901       .  S
O32          C34   1.271       .  A
Ni33       O2052   1.931       .  S
Ni33       O1046   1.907   1_545  S
C34        O1052   1.280       .  A
C34        C1874   1.484       .  S
O35       Ni1059   1.905   1_545  S
O35          C41   1.268       .  A
O36       Ni2049   1.931   1_455  S
O36          C41   1.273       .  A
C37         C888   1.480       .  S
O38       Ni1041   1.905       .  S
O38          C40   1.269       .  A
O39       Ni2066   1.926       .  S
C40          O46   1.273       .  A
C40         C932   1.482       .  S
C41         C899   1.482       .  S
H42          O43   0.966       .  S
O43         Ni45   1.914       .  S
O43       Ni2067   1.919       .  S
O43       Ni2066   1.921       .  S
O44       Ni3069   1.949   1_455  S
O44        C1042   1.280       .  A
Ni45         O47   1.910       .  S
Ni45       O3068   1.950       .  S
Ni45       O1057   1.911       .  S
Ni45       O1037   1.914       .  S
O46       Ni2067   1.933       .  S
C48          O49   1.269   1_545  A
C48         C844   1.482       .  S
O49       Ni1053   1.908       .  S
Ni50       O2055   1.926   1_455  S
Ni50       O2059   1.921   1_455  S
Ni51       O1043   1.906       .  S
Ni51       O2062   1.933   1_455  S
Ni51       O3053   1.909       .  S
Ni51       O2059   1.919   1_455  S
H52        O2045   0.966       .  S
C53          H54   1.110       .  S
C53          C59   1.528       .  S
C53          C58   1.536       .  S
C53          C57   1.534       .  S
C55          H56   1.110       .  S
C55          C61   1.545       .  S
C55          C60   1.543       .  S
C55          C62   1.540       .  S
C57          C60   1.378       .  D
C57         C679   1.489       .  S
C58          C61   1.382       .  D
C58         C701   1.486       .  S
C59          C62   1.367       .  D
C59         C734   1.476       .  S
C60         C767   1.488       .  S
C61         C756   1.495       .  S
C62         C800   1.481       .  S
C63          H64   1.111       .  S
C63          C69   1.542       .  S
C63          C68   1.539       .  S
C63        C1075   1.538       .  S
C65          H66   1.112       .  S
C65          C71   1.535       .  S
C65          C72   1.532       .  S
C65        C1078   1.531       .  S
C67        C1071   1.538   1_545  S
C67          C70   1.374       .  D
C67        C2805   1.482       .  S
C68          C71   1.375       .  D
C68         C778   1.489       .  S
C69          C72   1.377       .  D
C69        C2761   1.486       .  S
C70        C1073   1.533   1_545  S
C70        C2684   1.481       .  S
C71         C613   1.480       .  S
C72        C2662   1.482       .  S
C73          H74   1.111       .  S
C73          C79   1.538       .  S
C73          C78   1.540       .  S
C73          C77   1.536       .  S
C75          H76   1.111       .  S
C75          C81   1.532       .  S
C75          C80   1.535       .  S
C75          C82   1.529       .  S
C77          C80   1.375       .  D
C77         C547   1.484       .  S
C78          C81   1.376       .  D
C78         C580   1.483       .  S
C79          C82   1.373       .  D
C79         C591   1.479       .  S
C80         C481   1.479       .  S
C81         C514   1.485       .  S
C82         C536   1.477       .  S
C83          H84   1.111       .  S
C83          C89   1.533       .  S
C83          C88   1.534       .  S
C83          C87   1.531       .  S
C85          H86   1.111       .  S
C85          C91   1.537       .  S
C85          C90   1.539       .  S
C85          C92   1.534       .  S
C87          C90   1.375       .  D
C87         C987   1.480       .  S
C88          C91   1.376       .  D
C88         C943   1.476       .  S
C89          C92   1.373       .  D
C89         C976   1.485       .  S
C90         C602   1.482       .  S
C91         C558   1.485       .  S
C92         C569   1.476       .  S
O93         Ni99   1.926       .  S
O93         C114   1.270       .  A
O94        Ni117   1.907       .  S
O94         C103   1.267       .  A
O95         Ni99   1.908       .  S
O95        Ni117   1.905       .  S
O95        Ni111   1.909       .  S
O95         H118   0.966       .  S
C96         O113   1.276       .  A
C96         O105   1.277       .  A
C96         C448   1.479       .  S
O97        Ni116   1.934       .  S
O97         C103   1.272       .  A
O98        Ni116   1.908       .  S
O98         C100   1.269       .  A
Ni99        O102   1.920       .  S
Ni99        O104   1.907       .  S
C100        O110   1.270       .  A
C100        C415   1.481       .  S
O101       Ni117   1.914       .  S
O101        C107   1.275       .  A
O102        C107   1.277       .  A
C103        C503   1.482       .  S
O104        C106   1.269       .  A
O105       Ni116   1.926       .  S
C106        O112   1.272       .  A
C106        C525   1.482       .  S
C107        C492   1.480       .  S
H108        O109   0.966       .  S
O109       Ni117   1.910       .  S
O109       Ni111   1.910       .  S
O109       Ni116   1.913       .  S
O110       Ni111   1.919       .  S
Ni111       O115   1.916       .  S
Ni111       O113   1.910       .  S
O112       Ni117   1.925       .  S
C114        O115   1.269       .  A
C114        C459   1.486       .  S
O119       Ni125   1.928       .  S
O119        C140   1.270       .  A
O120      Ni1151   1.906   1_545  S
O120        C129   1.268       .  A
O121       Ni125   1.920       .  S
O121       Ni137   1.906       .  S
O121      Ni2159   1.909       .  S
O121        H144   0.966       .  S
C122        O139   1.267       .  A
C122        O131   1.274       .  A
C122        C723   1.480       .  S
O123       Ni142   1.933       .  S
O123        C129   1.274       .  A
O124      Ni1150   1.903       .  S
O124        C126   1.270       .  A
Ni125       O128   1.923       .  S
Ni125       O130   1.905       .  S
C126        O136   1.276       .  A
C126        C712   1.482       .  S
O127      Ni2159   1.908       .  S
O127        C133   1.272       .  A
O128        C133   1.275       .  A
C129        C470   1.489       .  S
O130        C132   1.268       .  A
O131       Ni142   1.938       .  S
C132       O1146   1.271       .  A
C132       C1434   1.483       .  S
C133        C437   1.481       .  S
H134        O135   0.966       .  S
O135       Ni142   1.920       .  S
O135      Ni1151   1.920   1_545  S
O135      Ni3161   1.912   1_445  S
O136      Ni2153   1.940   1_455  S
Ni137       O141   1.909       .  S
Ni137      O2152   1.940       .  S
Ni137      O3163   1.904       .  S
Ni137      O3159   1.912       .  S
O138      Ni3167   1.921       .  S
O138       C1140   1.271       .  A
O139      Ni3161   1.903   1_445  S
C140        O141   1.267       .  A
C140        C690   1.483       .  S
Ni142      O1132   1.906   1_545  S
Ni143      O1128   1.901       .  S
Ni143      O2143   1.908   1_455  S
Ni143      O3162   1.925   1_455  S
Ni143      O2137   1.909   1_455  S
Ni143      O1143   1.916       .  S
C145        H146   1.111       .  S
C145        C151   1.539       .  S
C145        C150   1.534       .  S
C145        C149   1.533       .  S
C147        H148   1.111       .  S
C147        C153   1.537       .  S
C147        C152   1.533       .  S
C147        C154   1.542       .  S
C149        C152   1.370       .  D
C149        C822   1.477       .  S
C150        C153   1.373       .  D
C150        C833   1.483       .  S
C151        C154   1.382       .  D
C151        C855   1.487       .  S
C152        C371   1.477       .  S
C153        C349   1.479       .  S
C154        C404   1.494       .  S
C155        H156   1.111       .  S
C155        C161   1.538   1_655  S
C155       C2176   1.540       .  S
C155       C2175   1.537       .  S
C157        H158   1.111       .  S
C157        C164   1.535   1_655  S
C157       C2179   1.535       .  S
C157       C2178   1.531       .  S
C159       C2171   1.537       .  S
C159        C162   1.374       .  D
C159        C382   1.480       .  S
C160       C2171   1.540       .  S
C160        C163   1.377       .  D
C160       C1368   1.481       .  S
C161        C164   1.376       .  D
C161        C393   1.488       .  S
C162       C2173   1.531       .  S
C162        C283   1.482       .  S
C163       C2173   1.535       .  S
C163       C1324   1.489       .  S
C164        C327   1.482       .  S
O165       Ni171   1.932       .  S
O165        C186   1.271       .  A
O166       Ni189   1.904       .  S
O166        C175   1.267       .  A
O167       Ni171   1.915       .  S
O167       Ni189   1.912       .  S
O167       Ni183   1.912       .  S
O167        H190   0.966       .  S
C168        O185   1.275       .  A
C168        O177   1.277       .  A
C168        C239   1.481       .  S
O169       Ni188   1.933       .  S
O169        C175   1.272       .  A
O170       Ni188   1.908       .  S
O170        C172   1.269       .  A
Ni171       O174   1.920       .  S
Ni171       O176   1.908       .  S
C172        O182   1.271       .  A
C172        C228   1.482       .  S
O173       Ni189   1.916       .  S
O173        C179   1.274       .  A
O174        C179   1.275       .  A
C175        C624   1.482       .  S
O176        C178   1.270       .  A
O177       Ni188   1.924       .  S
C178        O184   1.272       .  A
C178        C635   1.484       .  S
C179        C657   1.480       .  S
H180        O181   0.966       .  S
O181       Ni189   1.907       .  S
O181       Ni183   1.907       .  S
O181       Ni188   1.913       .  S
O182       Ni183   1.921       .  S
Ni183       O187   1.909       .  S
Ni183       O185   1.912       .  S
O184       Ni189   1.925       .  S
C186        O187   1.267       .  A
C186        C272   1.485       .  S
O191       Ni197   1.933       .  S
O191        C212   1.272       .  A
O192       Ni215   1.909       .  S
O192        C201   1.267       .  A
O193       Ni197   1.918       .  S
O193       Ni215   1.909       .  S
O193       Ni209   1.907       .  S
O193        H216   0.966       .  S
C194        O211   1.272       .  A
C194        O203   1.275       .  A
C194        C294   1.484       .  S
O195       Ni214   1.931       .  S
O195        C201   1.271       .  A
O196       Ni214   1.905       .  S
O196        C198   1.269       .  A
Ni197       O200   1.923       .  S
Ni197       O202   1.914       .  S
C198        O208   1.274       .  A
C198        C305   1.484       .  S
O199       Ni215   1.915       .  S
O199        C205   1.276       .  A
O200        C205   1.276       .  A
C201        C261   1.486       .  S
O202        C204   1.270       .  A
O203       Ni214   1.926       .  S
C204        O210   1.269       .  A
C204        C217   1.483       .  S
C205        C250   1.482       .  S
H206        O207   0.966       .  S
O207       Ni215   1.915       .  S
O207       Ni209   1.916       .  S
O207       Ni214   1.918       .  S
O208       Ni209   1.933       .  S
Ni209       O213   1.909       .  S
Ni209       O211   1.911       .  S
O210       Ni215   1.916       .  S
C212        O213   1.267       .  A
C212        C338   1.485       .  S
C217        C218   1.408       .  A
C217        C222   1.409       .  A
C218        C219   1.400       .  A
C218        H231   1.083       .  S
C219        C220   1.400       .  A
C219        H232   1.083       .  S
C220        C221   1.397       .  A
C220        C223   1.438   1_554  S
C221        C222   1.396       .  A
C221        H233   1.084   1_554  S
C222        H234   1.083       .  S
C223        C224   1.205       .  T
C224        C225   1.438       .  S
C225        C226   1.400       .  A
C225        C230   1.398       .  A
C226        C227   1.399       .  A
C226        H235   1.084       .  S
C227        C228   1.408       .  A
C227        H236   1.083       .  S
C228        C229   1.409       .  A
C229        C230   1.396       .  A
C229        H237   1.083       .  S
C230        H238   1.084       .  S
C239        C240   1.408       .  A
C239        C244   1.408       .  A
C240        C241   1.400       .  A
C240        H253   1.083       .  S
C241        C242   1.400       .  A
C241        H254   1.083       .  S
C242        C243   1.397       .  A
C242        C245   1.436       .  S
C243        C244   1.394       .  A
C243        H255   1.084       .  S
C244        H256   1.083       .  S
C245        C246   1.204       .  T
C246       C1255   1.436   1_556  S
C247        C248   1.400       .  A
C247        C252   1.398       .  A
C247       C1254   1.438   1_544  S
C248        C249   1.399       .  A
C248        H257   1.084   1_554  S
C249        C250   1.407       .  A
C249        H258   1.083       .  S
C250        C251   1.409       .  A
C251        C252   1.397       .  A
C251        H259   1.083       .  S
C252        H260   1.084   1_545  S
C261        C262   1.409       .  A
C261        C266   1.409       .  A
C262        C263   1.397       .  A
C262        H275   1.083       .  S
C263        C264   1.398   1_554  A
C263        H276   1.084       .  S
C264        C265   1.402       .  A
C264        C267   1.444       .  S
C265        C266   1.402   1_556  A
C265        H277   1.083       .  S
C266        H278   1.083       .  S
C267       C2284   1.208       .  T
C268        C269   1.444   1_655  S
C268       C2283   1.208       .  T
C269        C270   1.399   1_455  A
C269        C274   1.401       .  A
C270        C271   1.400   1_655  A
C270        H279   1.083       .  S
C271        C272   1.409       .  A
C271        H280   1.083       .  S
C272        C273   1.408       .  A
C273        C274   1.400       .  A
C273        H281   1.083       .  S
C274        H282   1.083       .  S
C283        C284   1.405       .  A
C283        C288   1.404       .  A
C284        C285   1.398       .  A
C284        H297   1.083       .  S
C285        C286   1.401       .  A
C285        H298   1.083       .  S
C286        C287   1.400       .  A
C286        C289   1.440       .  S
C287        C288   1.398       .  A
C287        H299   1.083       .  S
C288        H300   1.083       .  S
C289        C290   1.206       .  T
C290        C291   1.440       .  S
C291        C292   1.397       .  A
C291        C296   1.401       .  A
C292        C293   1.395       .  A
C292        H301   1.084       .  S
C293        C294   1.409       .  A
C293        H302   1.083       .  S
C294        C295   1.409       .  A
C295        C296   1.402       .  A
C295        H303   1.083       .  S
C296        H304   1.083       .  S
C305        C306   1.408       .  A
C305        C310   1.408       .  A
C306        C307   1.399       .  A
C306        H319   1.083       .  S
C307        C308   1.400       .  A
C307        H320   1.084       .  S
C308        C309   1.400       .  A
C308        C311   1.442       .  S
C309        C310   1.399       .  A
C309        H321   1.083       .  S
C310        H322   1.083       .  S
C311        C312   1.207       .  T
C312        C313   1.442       .  S
C313        C314   1.401       .  A
C313        C318   1.400       .  A
C314        C315   1.401       .  A
C314        H323   1.083       .  S
C315        C316   1.406       .  A
C315       H1332   1.083       .  S
C316       C1171   1.485       .  S
C316        C317   1.404       .  A
C317        C318   1.397       .  A
C317       H2341   1.083       .  S
C318        H326   1.083       .  S
H324       C1323   1.082       .  S
H325       C2333   1.083       .  S
C327        C328   1.403       .  A
C327       C1340   1.406       .  A
C328        C329   1.396       .  A
C328        H341   1.083       .  S
C329       C1338   1.400       .  A
C329        H342   1.084       .  S
C330        C331   1.402       .  A
C330       C1337   1.400       .  A
C330        C333   1.441       .  S
C331        C332   1.400       .  A
C331        H343   1.083       .  S
C332       C1335   1.406       .  A
C332        H344   1.083       .  S
C333        C334   1.207       .  T
C334        C335   1.442       .  S
C335        C336   1.399       .  A
C335        C340   1.400       .  A
C336        C337   1.398       .  A
C336        H345   1.084       .  S
C337        C338   1.408       .  A
C337        H346   1.083       .  S
C338        C339   1.409       .  A
C339        C340   1.401       .  A
C339        H347   1.083       .  S
C340        H348   1.083       .  S
C349        C350   1.401       .  A
C349        C354   1.405       .  A
C350        C351   1.397       .  A
C350        H363   1.080       .  S
C351        C352   1.400       .  A
C351        H364   1.083       .  S
C352        C353   1.400       .  A
C352        C355   1.437       .  S
C353        C354   1.397       .  A
C353        H365   1.083       .  S
C354        H366   1.083       .  S
C355        C356   1.205       .  T
C356        C357   1.437       .  S
C357        C358   1.400       .  A
C357        C362   1.399       .  A
C358        C359   1.398       .  A
C358        H367   1.084       .  S
C359        C360   1.404       .  A
C359       H1376   1.083   1_545  S
C360       C1168   1.482       .  S
C360        C361   1.405       .  A
C361        C362   1.397       .  A
C361        H369   1.083       .  S
C362        H370   1.083       .  S
H368       C1367   1.083       .  S
C371        C372   1.402       .  A
C371        C376   1.404       .  A
C372        C373   1.398       .  A
C372        H385   1.083       .  S
C373        C374   1.401       .  A
C373        H386   1.083       .  S
C374        C375   1.399       .  A
C374        C377   1.436       .  S
C375        C376   1.395       .  A
C375        H387   1.083       .  S
C376        H388   1.083       .  S
C377        C378   1.204       .  T
C378        C379   1.437       .  S
C379        C380   1.399       .  A
C379        C384   1.400       .  A
C380        C381   1.396       .  A
C380        H389   1.083       .  S
C381        C382   1.405       .  A
C381        H390   1.083       .  S
C382        C383   1.403       .  A
C383        C384   1.398       .  A
C383       H2407   1.083       .  S
C384        H392   1.083       .  S
H391       C2399   1.083       .  S
C393        C394   1.406       .  A
C393       C1406   1.405       .  A
C394        C395   1.399       .  A
C394        H407   1.083       .  S
C395       C1404   1.400       .  A
C395        H408   1.083       .  S
C396        C397   1.402       .  A
C396       C1403   1.401       .  A
C396        C399   1.445       .  S
C397        C398   1.401       .  A
C397        H409   1.083       .  S
C398       C1401   1.404       .  A
C398        H410   1.083       .  S
C399        C400   1.209       .  T
C400        C401   1.444       .  S
C401        C402   1.400       .  A
C401        C406   1.400       .  A
C402        C403   1.401       .  A
C402        H411   1.083       .  S
C403        C404   1.409       .  A
C403        H412   1.082       .  S
C404        C405   1.405       .  A
C405        C406   1.399       .  A
C405        H413   1.079       .  S
C406        H414   1.083       .  S
C415        C416   1.408       .  A
C415        C420   1.408       .  A
C416        C417   1.398       .  A
C416        H429   1.083       .  S
C417        C418   1.399       .  A
C417        H430   1.084       .  S
C418        C419   1.398       .  A
C418        C421   1.436       .  S
C419        C420   1.396       .  A
C419        H431   1.084       .  S
C420        H432   1.083       .  S
C421        C422   1.204       .  T
C422        C423   1.436       .  S
C423        C424   1.399       .  A
C423        C428   1.398       .  A
C424        C425   1.398       .  A
C424        H433   1.084       .  S
C425        C426   1.408       .  A
C425        H434   1.083   1_545  S
C426       C1140   1.481   1_545  S
C426       C1435   1.408       .  A
C427       C1434   1.408       .  A
C427       C1436   1.398       .  A
C427        H435   1.083       .  S
C428       C1435   1.397       .  A
C428       H1444   1.084       .  S
H436       C1436   1.084       .  S
C437        C438   1.408       .  A
C437        C442   1.408       .  A
C438        C439   1.395       .  A
C438        H451   1.083       .  S
C439        C440   1.398       .  A
C439        H452   1.084       .  S
C440        C441   1.399       .  A
C440        C443   1.436       .  S
C441        C442   1.398       .  A
C441        H453   1.083       .  S
C442        H454   1.083       .  S
C443        C444   1.204       .  T
C444        C445   1.436       .  S
C445        C446   1.399       .  A
C445        C450   1.398       .  A
C446        C447   1.398       .  A
C446        H455   1.084       .  S
C447        C448   1.408       .  A
C447        H456   1.083       .  S
C448        C449   1.407       .  A
C449        C450   1.396       .  A
C449        H457   1.083       .  S
C450        H458   1.084       .  S
C459        C460   1.407       .  A
C459        C464   1.409       .  A
C460        C461   1.402       .  A
C460        H473   1.083       .  S
C461        C462   1.402       .  A
C461        H474   1.083       .  S
C462        C463   1.399       .  A
C462        C465   1.445       .  S
C463        C464   1.399       .  A
C463        H475   1.084       .  S
C464        H476   1.083       .  S
C465        C466   1.209       .  T
C466        C467   1.445       .  S
C467        C468   1.402       .  A
C467        C472   1.399       .  A
C468        C469   1.403       .  A
C468        H477   1.083       .  S
C469        C470   1.409       .  A
C469        H478   1.083       .  S
C470        C471   1.409       .  A
C471        C472   1.399       .  A
C471       H1487   1.083       .  S
C472        H480   1.084       .  S
H479       C1479   1.083       .  S
C481        C482   1.404       .  A
C481        C486   1.404       .  A
C482        C483   1.396       .  A
C482        H495   1.083       .  S
C483        C484   1.399       .  A
C483        H496   1.083       .  S
C484        C485   1.401       .  A
C484        C487   1.438       .  S
C485        C486   1.398       .  A
C485        H497   1.083       .  S
C486        H498   1.083       .  S
C487        C488   1.205       .  T
C488        C489   1.438       .  S
C489        C494   1.398       .  A
C489       C1498   1.400       .  A
C490        C491   1.399       .  A
C490       C1497   1.399   1_545  A
C490        H499   1.083       .  S
C491        C492   1.408       .  A
C491        H500   1.083       .  S
C492        C493   1.408       .  A
C493       C1502   1.394   1_545  A
C493        H501   1.083       .  S
C494       C1501   1.395       .  A
C494        H502   1.084       .  S
C503        C504   1.407       .  A
C503        C508   1.408       .  A
C504        C505   1.397       .  A
C504        H517   1.083       .  S
C505        C506   1.399       .  A
C505        H518   1.084       .  S
C506        C507   1.401       .  A
C506        C509   1.441       .  S
C507        C508   1.401       .  A
C507        H519   1.083       .  S
C508        H520   1.083       .  S
C509       C2526   1.207       .  T
C510        C511   1.441       .  S
C510       C2525   1.207       .  T
C511        C512   1.400       .  A
C511        C516   1.401       .  A
C512        C513   1.400       .  A
C512        H521   1.083       .  S
C513        C514   1.406       .  A
C513        H522   1.083       .  S
C514        C515   1.404       .  A
C515        C516   1.398       .  A
C515        H523   1.083       .  S
C516        H524   1.084       .  S
C525        C526   1.408       .  A
C525        C530   1.407       .  A
C526        C527   1.400       .  A
C526        H539   1.083       .  S
C527        C528   1.400       .  A
C527        H540   1.083       .  S
C528        C529   1.399       .  A
C528        C531   1.439       .  S
C529        C530   1.397       .  A
C529        H541   1.084       .  S
C530        H542   1.083       .  S
C531        C532   1.206       .  T
C532        C533   1.439       .  S
C533        C534   1.400       .  A
C533        C538   1.401       .  A
C534        C535   1.396       .  A
C534        H543   1.084       .  S
C535        C536   1.402       .  A
C535        H544   1.084       .  S
C536        C537   1.404       .  A
C537        C538   1.400       .  A
C537        H545   1.083       .  S
C538        H546   1.083       .  S
C547        C548   1.406       .  A
C547        C552   1.403       .  A
C548        C549   1.400       .  A
C548        H561   1.083       .  S
C549        C550   1.401       .  A
C549        H562   1.083       .  S
C550        C551   1.400       .  A
C550        C553   1.442       .  S
C551        C552   1.398       .  A
C551        H563   1.083       .  S
C552        H564   1.083       .  S
C553        C554   1.207       .  T
C554       C1563   1.442       .  S
C555        C556   1.400       .  A
C555        C560   1.401       .  A
C555       C1562   1.441   1_545  S
C556        C557   1.399       .  A
C556        H565   1.083       .  S
C557        C558   1.405       .  A
C557        H566   1.083       .  S
C558        C559   1.404       .  A
C559        C560   1.399       .  A
C559        H567   1.083       .  S
C560        H568   1.083       .  S
C569        C570   1.402       .  A
C569        C574   1.403       .  A
C570        C571   1.398       .  A
C570        H583   1.083       .  S
C571        C572   1.401       .  A
C571        H584   1.083       .  S
C572        C573   1.399       .  A
C572        C575   1.436       .  S
C573        C574   1.396       .  A
C573        H585   1.083       .  S
C574        H586   1.083       .  S
C575       C2592   1.204       .  T
C576        C577   1.437       .  S
C576       C2591   1.204   1_455  T
C577        C578   1.400       .  A
C577        C582   1.399       .  A
C578        C579   1.398       .  A
C578        H587   1.083       .  S
C579        C580   1.404       .  A
C579        H588   1.083       .  S
C580        C581   1.406       .  A
C581        C582   1.396       .  A
C581        H589   1.083       .  S
C582        H590   1.084       .  S
C591        C592   1.404       .  A
C591        C596   1.403       .  A
C592        C593   1.397       .  A
C592        H605   1.083       .  S
C593        C594   1.400       .  A
C593        H606   1.084       .  S
C594        C595   1.400       .  A
C594        C597   1.438       .  S
C595        C596   1.398       .  A
C595        H607   1.083       .  S
C596        H608   1.083       .  S
C597        C598   1.205       .  T
C598        C599   1.438       .  S
C599        C600   1.400       .  A
C599        C604   1.400       .  A
C600        C601   1.398       .  A
C600        H609   1.083       .  S
C601        C602   1.406       .  A
C601        H610   1.083       .  S
C602        C603   1.403       .  A
C603        C604   1.397       .  A
C603        H611   1.083       .  S
C604        H612   1.083       .  S
C613        C614   1.402       .  A
C613        C618   1.405       .  A
C614        C615   1.397       .  A
C614        H627   1.083       .  S
C615        C616   1.400       .  A
C615        H628   1.083       .  S
C616        C617   1.401       .  A
C616        C619   1.440       .  S
C617        C618   1.400       .  A
C617        H629   1.083       .  S
C618       H1638   1.083       .  S
C619        C620   1.206       .  T
C620        C621   1.440       .  S
C621        C622   1.400       .  A
C621        C626   1.399       .  A
C622        C623   1.399       .  A
C622        H631   1.083       .  S
C623        C624   1.408       .  A
C623        H632   1.083       .  S
C624        C625   1.408       .  A
C625        C626   1.398       .  A
C625        H633   1.083       .  S
C626        H634   1.084       .  S
H630       C1626   1.083       .  S
C635        C636   1.408       .  A
C635        C640   1.409       .  A
C636        C637   1.397       .  A
C636        H649   1.083       .  S
C637        C638   1.399       .  A
C637        H650   1.084       .  S
C638        C639   1.401       .  A
C638        C641   1.441       .  S
C639        C640   1.401       .  A
C639        H651   1.083       .  S
C640        H652   1.083       .  S
C641        C642   1.207       .  T
C642        C643   1.441       .  S
C643        C644   1.400       .  A
C643        C648   1.402       .  A
C644        C645   1.398       .  A
C644        H653   1.083       .  S
C645        C646   1.404       .  A
C645       H1662   1.083       .  S
C646       C2088   1.482       .  S
C646       C2663   1.404       .  A
C647       C2662   1.404       .  A
C647       C2664   1.400       .  A
C647        H655   1.083       .  S
C648       C2663   1.400       .  A
C648        H656   1.083       .  S
H654       C1653   1.083       .  S
C657        C658   1.408       .  A
C657        C662   1.406       .  A
C658        C659   1.402       .  A
C658        H671   1.083       .  S
C659        C660   1.401       .  A
C659        H672   1.083       .  S
C660        C661   1.397       .  A
C660        C663   1.438       .  S
C661        C662   1.393       .  A
C661        H673   1.084       .  S
C662        H674   1.083       .  S
C663        C664   1.205       .  T
C664        C665   1.438       .  S
C665        C670   1.399       .  A
C665       C2682   1.401       .  A
C666        C667   1.397       .  A
C666       C2681   1.401       .  A
C666        H675   1.084       .  S
C667       C2684   1.403       .  A
C667        H676   1.083       .  S
C668       C2086   1.481       .  S
C668        C669   1.406       .  A
C668       C2683   1.403       .  A
C669        C670   1.398       .  A
C669        H677   1.083       .  S
C670        H678   1.083       .  S
C679        C680   1.405       .  A
C679        C684   1.408       .  A
C680        C681   1.397       .  A
C680        H693   1.081       .  S
C681        C682   1.399       .  A
C681        H694   1.084       .  S
C682        C683   1.400       .  A
C682        C685   1.440       .  S
C683        C684   1.400       .  A
C683        H695   1.083       .  S
C684        H696   1.082       .  S
C685        C686   1.206       .  T
C686        C687   1.440       .  S
C687        C688   1.401       .  A
C687        C692   1.398       .  A
C688        C689   1.402       .  A
C688        H697   1.083       .  S
C689        C690   1.408       .  A
C689        H698   1.083       .  S
C690        C691   1.408       .  A
C691        C692   1.395       .  A
C691        H699   1.083       .  S
C692        H700   1.084       .  S
C701        C702   1.407       .  A
C701        C706   1.405       .  A
C702        C703   1.400       .  A
C702        H715   1.083       .  S
C703        C704   1.400       .  A
C703        H716   1.083       .  S
C704        C705   1.399       .  A
C704        C707   1.438       .  S
C705        C706   1.395       .  A
C705        H717   1.084       .  S
C706        H718   1.083       .  S
C707        C708   1.205       .  T
C708        C709   1.438       .  S
C709        C710   1.399       .  A
C709        C714   1.399       .  A
C710        C711   1.396       .  A
C710        H719   1.084       .  S
C711        C712   1.407       .  A
C711        H720   1.083       .  S
C712        C713   1.409       .  A
C713        C714   1.399       .  A
C713        H721   1.083   1_455  S
C714        H722   1.083       .  S
C723        C724   1.408       .  A
C723        C728   1.407       .  A
C724        C725   1.400       .  A
C724        H737   1.083   1_455  S
C725        C726   1.400       .  A
C725        H738   1.083       .  S
C726        C727   1.399       .  A
C726        C729   1.439       .  S
C727        C728   1.396       .  A
C727        H739   1.084       .  S
C728        H740   1.083       .  S
C729        C730   1.206       .  T
C730        C731   1.439       .  S
C731        C732   1.401       .  A
C731        C736   1.401       .  A
C732        C733   1.396       .  A
C732        H741   1.084       .  S
C733        C734   1.400       .  A
C733        H742   1.082       .  S
C734        C735   1.404       .  A
C735        C736   1.400       .  A
C735        H743   1.083       .  S
C736        H744   1.083       .  S
C745       C2085   1.486       .  S
C745        C746   1.407       .  A
C745        C750   1.404       .  A
C746        C747   1.398       .  A
C746        H759   1.082       .  S
C747        C748   1.399       .  A
C747        H760   1.083       .  S
C748        C749   1.401       .  A
C748        C751   1.441       .  S
C749        C750   1.400       .  A
C749        H761   1.083       .  S
C750        H762   1.083   1_455  S
C751        C752   1.207       .  T
C752        C753   1.442       .  S
C753        C754   1.400       .  A
C753        C758   1.398       .  A
C754        C755   1.400       .  A
C754        H763   1.083       .  S
C755        C756   1.409       .  A
C755        H764   1.082       .  S
C756        C757   1.406       .  A
C757        C758   1.397       .  A
C757        H765   1.077       .  S
C758        H766   1.084       .  S
C767        C768   1.404       .  A
C767        C772   1.407       .  A
C768        C769   1.401       .  A
C768        H781   1.083       .  S
C769        C770   1.402       .  A
C769        H782   1.083       .  S
C770        C771   1.401       .  A
C770        C773   1.446       .  S
C771        C772   1.400       .  A
C771        H783   1.083       .  S
C772        H784   1.083       .  S
C773        C774   1.210       .  T
C774        C775   1.446       .  S
C775        C776   1.401       .  A
C775        C780   1.402       .  A
C776        C777   1.400       .  A
C776        H785   1.083       .  S
C777        C778   1.407       .  A
C777        H786   1.083       .  S
C778        C779   1.405       .  A
C779        C780   1.401       .  A
C779       H1795   1.083       .  S
C780        H788   1.083       .  S
H787       C1787   1.083       .  S
C789       C2083   1.482       .  S
C789        C790   1.403       .  A
C789        C794   1.405       .  A
C790        C791   1.399       .  A
C790        H803   1.083       .  S
C791        C792   1.401       .  A
C791        H804   1.083       .  S
C792        C793   1.401       .  A
C792        C795   1.441       .  S
C793        C794   1.399       .  A
C793        H805   1.083       .  S
C794       H2822   1.083   1_455  S
C795        C796   1.207       .  T
C796        C797   1.441       .  S
C797        C798   1.400       .  A
C797        C802   1.401       .  A
C798        C799   1.398       .  A
C798        H807   1.083       .  S
C799        C800   1.402       .  A
C799        H808   1.078       .  S
C800        C801   1.405       .  A
C801        C802   1.399       .  A
C801        H809   1.083       .  S
C802        H810   1.083       .  S
H806       C2810   1.083       .  S
C811        C812   1.406       .  A
C811        C816   1.408       .  A
C812        C813   1.401       .  A
C812        H825   1.083       .  S
C813        C814   1.402       .  A
C813        H826   1.083       .  S
C814        C815   1.397       .  A
C814        C817   1.437       .  S
C815        C816   1.394       .  A
C815        H827   1.084       .  S
C816        H828   1.083       .  S
C817        C818   1.205       .  T
C818        C819   1.437       .  S
C819        C820   1.401       .  A
C819        C824   1.399       .  A
C820        C821   1.399       .  A
C820        H829   1.083       .  S
C821        C822   1.404       .  A
C821        H830   1.083       .  S
C822        C823   1.400       .  A
C823        C824   1.396       .  A
C823        H831   1.080       .  S
C824        H832   1.083       .  S
C833        C834   1.405       .  A
C833        C838   1.403       .  A
C834        C835   1.399       .  A
C834        H847   1.083       .  S
C835        C836   1.400       .  A
C835        H848   1.083       .  S
C836        C837   1.401       .  A
C836        C839   1.441       .  S
C837        C838   1.399       .  A
C837        H849   1.083       .  S
C838        H850   1.083       .  S
C839        C840   1.207       .  T
C840        C841   1.440       .  S
C841        C842   1.397       .  A
C841        C846   1.402       .  A
C842        C843   1.395       .  A
C842        H851   1.084       .  S
C843        C844   1.408       .  A
C843        H852   1.083       .  S
C844       C1853   1.407       .  A
C845       C1852   1.407       .  A
C845       C1854   1.403       .  A
C845        H853   1.083       .  S
C846       C1853   1.402       .  A
C846       H1862   1.083       .  S
H854       C1854   1.083       .  S
C855        C856   1.405       .  A
C855        C860   1.407       .  A
C856        C857   1.396       .  A
C856        H869   1.079       .  S
C857        C858   1.398       .  A
C857        H870   1.084       .  S
C858        C859   1.400       .  A
C858        C861   1.438       .  S
C859        C860   1.399       .  A
C859        H871   1.083       .  S
C860        H872   1.083       .  S
C861        C862   1.205       .  T
C862        C863   1.439       .  S
C863        C864   1.400       .  A
C863        C868   1.398       .  A
C864       C1873   1.399       .  A
C864       H1881   1.083       .  S
C865       C1872   1.400       .  A
C865       C1874   1.408       .  A
C865        H874   1.083       .  S
C866       C1042   1.483       .  S
C866        C867   1.409       .  A
C866       C1873   1.408   1_565  A
C867        C868   1.397   1_565  A
C867        H875   1.083       .  S
C868        H876   1.084       .  S
H873       C1872   1.083       .  S
C877        C878   1.408       .  A
C877        C882   1.408       .  A
C878        C879   1.396       .  A
C878        H891   1.083       .  S
C879        C880   1.398       .  A
C879        H892   1.084       .  S
C880        C881   1.399       .  A
C880        C883   1.436       .  S
C881        C882   1.397       .  A
C881        H893   1.084       .  S
C882        H894   1.083       .  S
C883        C884   1.204       .  T
C884        C885   1.436       .  S
C885        C886   1.398       .  A
C885        C890   1.399       .  A
C886        C887   1.396       .  A
C886        H895   1.084       .  S
C887        C888   1.407       .  A
C887        H896   1.083       .  S
C888        C889   1.408       .  A
C889        C890   1.398       .  A
C889        H897   1.083       .  S
C890        H898   1.083       .  S
C899        C900   1.407       .  A
C899        C904   1.409       .  A
C900        C901   1.393       .  A
C900       H2929   1.083       .  S
C901        C902   1.397       .  A
C901        H914   1.084       .  S
C902        C903   1.400       .  A
C902        C905   1.436       .  S
C903        C904   1.401       .  A
C903        H915   1.083       .  S
C904        H916   1.083       .  S
C905        C906   1.204       .  T
C906        C907   1.437       .  S
C907        C908   1.399       .  A
C907        C912   1.398       .  A
C908        C909   1.399       .  A
C908        H917   1.083       .  S
C909        C910   1.408       .  A
C909        H918   1.083       .  S
C910        C911   1.408       .  A
C911        C912   1.395       .  A
C911        H919   1.083       .  S
C912        H920   1.084       .  S
H913       C2916   1.083       .  S
C921        C922   1.408       .  A
C921        C926   1.409       .  A
C922        C923   1.397       .  A
C922        H935   1.083       .  S
C923        C924   1.399       .  A
C923        H936   1.084       .  S
C924        C925   1.399       .  A
C924        C927   1.439       .  S
C925        C926   1.400       .  A
C925        H937   1.083       .  S
C926        H938   1.083       .  S
C927        C928   1.206       .  T
C928        C929   1.439       .  S
C929        C930   1.400       .  A
C929        C934   1.398       .  A
C930        C931   1.400       .  A
C930        H939   1.083       .  S
C931        C932   1.408       .  A
C931        H940   1.083       .  S
C932        C933   1.408       .  A
C933        C934   1.397       .  A
C933        H941   1.083       .  S
C934        H942   1.084       .  S
C943        C944   1.403       .  A
C943        C948   1.404       .  A
C944        C945   1.394       .  A
C944        H957   1.083       .  S
C945        C946   1.397       .  A
C945        H958   1.084       .  S
C946        C947   1.401       .  A
C946        C949   1.433       .  S
C947        C948   1.398       .  A
C947        H959   1.083       .  S
C948        H960   1.083       .  S
C949       C1958   1.202   1_545  T
C950        C951   1.434       .  S
C950       C1957   1.202       .  T
C951        C952   1.397       .  A
C951        C956   1.400       .  A
C952        C953   1.393       .  A
C952        H961   1.084       .  S
C953        C954   1.407       .  A
C953        H962   1.083       .  S
C954        C955   1.408       .  A
C955        C956   1.399       .  A
C955        H963   1.083       .  S
C956        H964   1.083       .  S
C965        C966   1.408       .  A
C965        C970   1.408       .  A
C966        C967   1.403       .  A
C966        H979   1.083       .  S
C967        C968   1.402       .  A
C967        H980   1.083       .  S
C968        C969   1.397       .  A
C968       C2987   1.442       .  S
C969        C970   1.395       .  A
C969       H2997   1.084       .  S
C970        H982   1.083       .  S
C971       C2984   1.442       .  S
C971        C972   1.207       .  T
C972        C973   1.442       .  S
C973        C974   1.401       .  A
C973        C978   1.400       .  A
C974        C975   1.399       .  A
C974        H983   1.083       .  S
C975        C976   1.403       .  A
C975        H984   1.083       .  S
C976        C977   1.406       .  A
C977        C978   1.399       .  A
C977        H985   1.083       .  S
C978        H986   1.083       .  S
H981       C2985   1.084       .  S
C987        C988   1.402       .  A
C987        C992   1.405       .  A
C988        C989   1.396       .  A
C988       H1001   1.083       .  S
C989        C990   1.399       .  A
C989       H1002   1.084       .  S
C990        C991   1.402       .  A
C990        C993   1.439       .  S
C991        C992   1.400       .  A
C991       H1003   1.083       .  S
C992       H1004   1.083       .  S
C993        C994   1.206       .  T
C994        C995   1.439       .  S
C995        C996   1.398       .  A
C995       C1000   1.400       .  A
C996        C997   1.398       .  A
C996       H1005   1.083       .  S
C997        C998   1.409       .  A
C997       H1006   1.083       .  S
C998        C999   1.407       .  A
C999       C1000   1.399       .  A
C999       H1007   1.083       .  S
C1000      H1008   1.084       .  S
O1009     Ni1015   1.926       .  S
O1009      C1030   1.269       .  A
O1010     Ni1033   1.899       .  S
O1010      C1019   1.265       .  A
O1011     Ni1015   1.919       .  S
O1011     Ni1033   1.910       .  S
O1011     Ni1027   1.906       .  S
O1011      H1034   0.968       .  S
C1012      O1029   1.269       .  A
C1012      O1021   1.274       .  A
C1012      C1962   1.476       .  S
O1013     Ni1032   1.933       .  S
O1013      C1019   1.273       .  A
O1014     Ni1032   1.909       .  S
O1014      C1016   1.271       .  A
Ni1015     O1018   1.921       .  S
Ni1015     O1020   1.901       .  S
C1016      O1026   1.274       .  A
C1016      C2006   1.484       .  S
O1017     Ni1033   1.904       .  S
O1017      C1023   1.271       .  A
O1018      C1023   1.274       .  A
C1019      C1929   1.483       .  S
O1020      C1022   1.267       .  A
O1021     Ni1032   1.928       .  S
C1022      O1028   1.270       .  A
C1022      C1885   1.480       .  S
C1023      C1918   1.479       .  S
H1024      O1025   0.966       .  S
O1025     Ni1033   1.910       .  S
O1025     Ni1027   1.915       .  S
O1025     Ni1032   1.919       .  S
O1026     Ni1027   1.934       .  S
Ni1027     O1031   1.913       .  S
Ni1027     O1029   1.899       .  S
O1028     Ni1033   1.923       .  S
C1030      O1031   1.267       .  A
C1030      C1973   1.484       .  S
O1035     Ni1041   1.918       .  S
O1035      C1056   1.270       .  A
O1036     Ni1059   1.896       .  S
O1036      C1045   1.264       .  A
O1037     Ni1041   1.922       .  S
O1037     Ni2067   1.909       .  S
O1037      H3076   0.966       .  S
C1038      O1055   1.268       .  A
C1038      O1047   1.271       .  A
C1038      C1819   1.479       .  S
O1039     Ni1058   1.925       .  S
O1039      C1045   1.270       .  A
O1040     Ni1058   1.900       .  S
O1040      C1042   1.271       .  A
Ni1041     O3060   1.925       .  S
O1043      C1049   1.268       .  A
O1044     Ni3057   1.925   1_455  S
O1044      C1049   1.272       .  A
C1045      C1896   1.478       .  S
O1046      C1048   1.270       .  A
O1047     Ni3074   1.926       .  S
C1048      O1054   1.273       .  A
C1048      C1940   1.482       .  S
C1049      C1907   1.480       .  S
H1050      O1051   0.966       .  S
O1051     Ni3075   1.919       .  S
O1051     Ni1053   1.912       .  S
O1051     Ni3074   1.921       .  S
O1052     Ni2061   1.950   1_455  S
Ni1053     O2060   1.949       .  S
Ni1053     O1055   1.910       .  S
O1054     Ni3075   1.933       .  S
C1056      O1057   1.269       .  A
C1056      C1852   1.480       .  S
Ni1058     O3063   1.926   1_455  S
Ni1058     O3067   1.921   1_455  S
Ni1059     O3070   1.933   1_455  S
Ni1059     O2045   1.908   1_565  S
Ni1059     O3067   1.919   1_455  S
H1060      O3053   0.966       .  S
C1061      H1062   1.110       .  S
C1061      C1067   1.531       .  S
C1061      C1066   1.541       .  S
C1061      C1065   1.537       .  S
C1063      H1064   1.110       .  S
C1063      C1069   1.543       .  S
C1063      C1068   1.543       .  S
C1063      C1070   1.536       .  S
C1065      C1068   1.379       .  D
C1065      C1687   1.491       .  S
C1066      C1069   1.383       .  D
C1066      C1709   1.491       .  S
C1067      C1070   1.366       .  D
C1067      C1742   1.478       .  S
C1068      C1775   1.489       .  S
C1069      C1764   1.492       .  S
C1070      C1808   1.477       .  S
C1071      H1072   1.111       .  S
C1071      C1077   1.543       .  S
C1071      C1076   1.540       .  S
C1073      H1074   1.111       .  S
C1073      C1079   1.532       .  S
C1073      C1080   1.532       .  S
C1075      C1078   1.373       .  D
C1075      C3813   1.482       .  S
C1076      C1079   1.374       .  D
C1076      C1786   1.486       .  S
C1077      C1080   1.377       .  D
C1077      C3769   1.486       .  S
C1078      C3692   1.479       .  S
C1079      C1621   1.479       .  S
C1080      C3670   1.483       .  S
C1081      H1082   1.111       .  S
C1081      C1087   1.538       .  S
C1081      C1086   1.542       .  S
C1081      C1085   1.536       .  S
C1083      H1084   1.111       .  S
C1083      C1089   1.530       .  S
C1083      C1088   1.534       .  S
C1083      C1090   1.529       .  S
C1085      C1088   1.375       .  D
C1085      C1555   1.485       .  S
C1086      C1089   1.377       .  D
C1086      C1588   1.484       .  S
C1087      C1090   1.373       .  D
C1087      C1599   1.479       .  S
C1088      C1489   1.478       .  S
C1089      C1522   1.485       .  S
C1090      C1544   1.478       .  S
C1091      H1092   1.111       .  S
C1091      C1097   1.533       .  S
C1091      C1096   1.535       .  S
C1091      C1095   1.531       .  S
C1093      H1094   1.111       .  S
C1093      C1099   1.537       .  S
C1093      C1098   1.539       .  S
C1093      C1100   1.534       .  S
C1095      C1098   1.375       .  D
C1095      C1995   1.480       .  S
C1096      C1099   1.376       .  D
C1096      C1951   1.479       .  S
C1097      C1100   1.373       .  D
C1097      C1984   1.484       .  S
C1098      C1610   1.481       .  S
C1099      C1566   1.484       .  S
C1100      C1577   1.477       .  S
O1101     Ni1107   1.923       .  S
O1101      C1122   1.269       .  A
O1102     Ni1125   1.908       .  S
O1102      C1111   1.268       .  A
O1103     Ni1107   1.907       .  S
O1103     Ni1125   1.905       .  S
O1103     Ni1119   1.911       .  S
O1103      H1126   0.966       .  S
C1104      O1121   1.275       .  A
C1104      O1113   1.278       .  A
C1104      C1456   1.480       .  S
O1105     Ni1124   1.936       .  S
O1105      C1111   1.274       .  A
O1106     Ni1124   1.911       .  S
O1106      C1108   1.270       .  A
Ni1107     O1110   1.917       .  S
Ni1107     O1112   1.905       .  S
C1108      O1118   1.270       .  A
C1108      C1423   1.483       .  S
O1109     Ni1125   1.920       .  S
O1109      C1115   1.277       .  A
O1110      C1115   1.276       .  A
C1111      C1511   1.483       .  S
O1112      C1114   1.269       .  A
O1113     Ni1124   1.930       .  S
C1114      O1120   1.272       .  A
C1114      C1533   1.481       .  S
C1115      C1500   1.480       .  S
H1116      O1117   0.966       .  S
O1117     Ni1125   1.913       .  S
O1117     Ni1119   1.908       .  S
O1117     Ni1124   1.913       .  S
O1118     Ni1119   1.920       .  S
Ni1119     O1123   1.913       .  S
Ni1119     O1121   1.908       .  S
O1120     Ni1125   1.925       .  S
C1122      O1123   1.268       .  A
C1122      C1467   1.482       .  S
O1127     Ni1133   1.932       .  S
O1127      C1148   1.271       .  A
O1128      C1137   1.266       .  A
O1129     Ni1133   1.920       .  S
O1129     Ni3167   1.910       .  S
O1129     Ni1145   1.904       .  S
O1129      H1152   0.966       .  S
C1130      O1147   1.269       .  A
C1130      O1139   1.274       .  A
C1130      C1731   1.478       .  S
O1131     Ni1150   1.934       .  S
O1131      C1137   1.273       .  A
O1132      C1134   1.272       .  A
Ni1133     O1136   1.922       .  S
Ni1133     O1138   1.907       .  S
C1134      O1144   1.278       .  A
C1134      C1720   1.484       .  S
O1135     Ni3167   1.911       .  S
O1135      C1141   1.273       .  A
O1136      C1141   1.275       .  A
C1137      C1478   1.481       .  S
O1138      C1140   1.269       .  A
O1139     Ni1150   1.938       .  S
C1141      C1445   1.481       .  S
H1142      O1143   0.966       .  S
O1143     Ni2153   1.912   1_455  S
O1143     Ni1150   1.922       .  S
O1144     Ni3161   1.946   1_455  S
Ni1145     O3160   1.946       .  S
Ni1145     O1149   1.908       .  S
Ni1145     O2155   1.903   1_565  S
Ni1145     O2151   1.912   1_565  S
O1146     Ni2159   1.924       .  S
O1147     Ni2153   1.904   1_455  S
C1148      O1149   1.267       .  A
C1148      C1698   1.485       .  S
Ni1151     O3151   1.911   1_455  S
Ni1151     O2154   1.921   1_455  S
Ni1151     O3145   1.910   1_455  S
C1153      H1154   1.111       .  S
C1153      C1159   1.538       .  S
C1153      C1158   1.534       .  S
C1153      C1157   1.533       .  S
C1155      H1156   1.111       .  S
C1155      C1161   1.537       .  S
C1155      C1160   1.534       .  S
C1155      C1162   1.543       .  S
C1157      C1160   1.371       .  D
C1157      C1830   1.477       .  S
C1158      C1161   1.372       .  D
C1158      C1841   1.480       .  S
C1159      C1162   1.381       .  D
C1159      C1863   1.489       .  S
C1160      C1379   1.478       .  S
C1161      C1357   1.482       .  S
C1162      C1412   1.492       .  S
C1163      H1164   1.111       .  S
C1163      C1169   1.537   1_665  S
C1163      C3184   1.542   1_565  S
C1163      C3183   1.540       .  S
C1165      H1166   1.111       .  S
C1165      C3187   1.531   1_565  S
C1165      C3186   1.529       .  S
C1165      C1172   1.534   1_665  S
C1167      C3179   1.540       .  S
C1167      C1170   1.375       .  D
C1167      C1390   1.480       .  S
C1168      C3179   1.542   1_545  S
C1168      C1171   1.377       .  D
C1169      C1172   1.374       .  D
C1169      C1401   1.485       .  S
C1170      C3181   1.529       .  S
C1170      C1291   1.480       .  S
C1171      C3181   1.531   1_545  S
C1172      C1335   1.480       .  S
O1173     Ni1179   1.931       .  S
O1173      C1194   1.271       .  A
O1174     Ni1197   1.903       .  S
O1174      C1183   1.267       .  A
O1175     Ni1179   1.915       .  S
O1175     Ni1197   1.911       .  S
O1175     Ni1191   1.911       .  S
O1175      H1198   0.966       .  S
C1176      O1193   1.275       .  A
C1176      O1185   1.278       .  A
C1176      C1247   1.482       .  S
O1177     Ni1196   1.934       .  S
O1177      C1183   1.273       .  A
O1178     Ni1196   1.911       .  S
O1178      C1180   1.269       .  A
Ni1179     O1182   1.917       .  S
Ni1179     O1184   1.906       .  S
C1180      O1190   1.269       .  A
C1180      C1236   1.483       .  S
O1181     Ni1197   1.917       .  S
O1181      C1187   1.275       .  A
O1182      C1187   1.275       .  A
C1183      C1632   1.481       .  S
O1184      C1186   1.270       .  A
O1185     Ni1196   1.928       .  S
C1186      O1192   1.272       .  A
C1186      C1643   1.483       .  S
C1187      C1665   1.482       .  S
H1188      O1189   0.966       .  S
O1189     Ni1197   1.909       .  S
O1189     Ni1191   1.905       .  S
O1189     Ni1196   1.915       .  S
O1190     Ni1191   1.918       .  S
Ni1191     O1195   1.903       .  S
Ni1191     O1193   1.911       .  S
O1192     Ni1197   1.926       .  S
C1194      O1195   1.266       .  A
C1194      C1280   1.483       .  S
O1199     Ni1205   1.931       .  S
O1199      C1220   1.271       .  A
O1200     Ni1223   1.910       .  S
O1200      C1209   1.268       .  A
O1201     Ni1205   1.915       .  S
O1201     Ni1223   1.907       .  S
O1201     Ni1217   1.908       .  S
O1201      H1224   0.966       .  S
C1202      O1219   1.274       .  A
C1202      O1211   1.276       .  A
C1202      C1302   1.484       .  S
O1203     Ni1222   1.930       .  S
O1203      C1209   1.272       .  A
O1204     Ni1222   1.908       .  S
O1204      C1206   1.269       .  A
Ni1205     O1208   1.920       .  S
Ni1205     O1210   1.912       .  S
C1206      O1216   1.273       .  A
C1206      C1313   1.486       .  S
O1207     Ni1223   1.918       .  S
O1207      C1213   1.277       .  A
O1208      C1213   1.276       .  A
C1209      C1269   1.485       .  S
O1210      C1212   1.269       .  A
O1211     Ni1222   1.927       .  S
C1212      O1218   1.270       .  A
C1212      C1225   1.484       .  S
C1213      C1258   1.480       .  S
H1214      O1215   0.966       .  S
O1215     Ni1223   1.912       .  S
O1215     Ni1217   1.912       .  S
O1215     Ni1222   1.914       .  S
O1216     Ni1217   1.934       .  S
Ni1217     O1221   1.907       .  S
Ni1217     O1219   1.912       .  S
O1218     Ni1223   1.919       .  S
C1220      O1221   1.267       .  A
C1220      C1346   1.481       .  S
C1225      C1226   1.409       .  A
C1225      C1230   1.408       .  A
C1226      C1227   1.400       .  A
C1226      H1239   1.083       .  S
C1227      C1228   1.400       .  A
C1227      H1240   1.084       .  S
C1228      C1229   1.398       .  A
C1228      C1231   1.439   1_554  S
C1229      C1230   1.396       .  A
C1229      H1241   1.084   1_554  S
C1230      H1242   1.083       .  S
C1231      C1232   1.205       .  T
C1232      C1233   1.439       .  S
C1233      C1234   1.400       .  A
C1233      C1238   1.398       .  A
C1234      C1235   1.399       .  A
C1234      H1243   1.083       .  S
C1235      C1236   1.408       .  A
C1235      H1244   1.083       .  S
C1236      C1237   1.409       .  A
C1237      C1238   1.397       .  A
C1237      H1245   1.083       .  S
C1238      H1246   1.084       .  S
C1247      C1248   1.409       .  A
C1247      C1252   1.408       .  A
C1248      C1249   1.400       .  A
C1248      H1261   1.083       .  S
C1249      C1250   1.400       .  A
C1249      H1262   1.083       .  S
C1250      C1251   1.398       .  A
C1250      C1253   1.438       .  S
C1251      C1252   1.396       .  A
C1251      H1263   1.084       .  S
C1252      H1264   1.083       .  S
C1253      C1254   1.205       .  T
C1255      C1256   1.400       .  A
C1255      C1260   1.397       .  A
C1256      C1257   1.399       .  A
C1256      H1265   1.084   1_554  S
C1257      C1258   1.407       .  A
C1257      H1266   1.083       .  S
C1258      C1259   1.408       .  A
C1259      C1260   1.396       .  A
C1259      H1267   1.083       .  S
C1260      H1268   1.084       .  S
C1269      C1270   1.409       .  A
C1269      C1274   1.408       .  A
C1270      C1271   1.397       .  A
C1270      H1283   1.083       .  S
C1271      C1272   1.398   1_554  A
C1271      H1284   1.084       .  S
C1272      C1273   1.401       .  A
C1272      C1275   1.441       .  S
C1273      C1274   1.402   1_556  A
C1273      H1285   1.083       .  S
C1274      H1286   1.083       .  S
C1275      C3292   1.207       .  T
C1276      C1277   1.441   1_655  S
C1276      C3291   1.207       .  T
C1277      C1278   1.399   1_455  A
C1277      C1282   1.400       .  A
C1278      C1279   1.399   1_655  A
C1278      H1287   1.083       .  S
C1279      C1280   1.408       .  A
C1279      H1288   1.083       .  S
C1280      C1281   1.408       .  A
C1281      C1282   1.399       .  A
C1281      H1289   1.083       .  S
C1282      H1290   1.083       .  S
C1291      C1292   1.404       .  A
C1291      C1296   1.404       .  A
C1292      C1293   1.399       .  A
C1292      H1305   1.083       .  S
C1293      C1294   1.401       .  A
C1293      H1306   1.083       .  S
C1294      C1295   1.400       .  A
C1294      C1297   1.440       .  S
C1295      C1296   1.398       .  A
C1295      H1307   1.083       .  S
C1296      H1308   1.084       .  S
C1297      C1298   1.206       .  T
C1298      C1299   1.440       .  S
C1299      C1300   1.397       .  A
C1299      C1304   1.401       .  A
C1300      C1301   1.395       .  A
C1300      H1309   1.084       .  S
C1301      C1302   1.409       .  A
C1301      H1310   1.083       .  S
C1302      C1303   1.408       .  A
C1303      C1304   1.402       .  A
C1303      H1311   1.083       .  S
C1304      H1312   1.083       .  S
C1313      C1314   1.408       .  A
C1313      C1318   1.408       .  A
C1314      C1315   1.400       .  A
C1314      H1327   1.083       .  S
C1315      C1316   1.400       .  A
C1315      H1328   1.084       .  S
C1316      C1317   1.400       .  A
C1316      C1319   1.445       .  S
C1317      C1318   1.401       .  A
C1317      H1329   1.083       .  S
C1318      H1330   1.083       .  S
C1319      C1320   1.209       .  T
C1320      C1321   1.445       .  S
C1321      C1322   1.402       .  A
C1321      C1326   1.400       .  A
C1322      C1323   1.402       .  A
C1322      H1331   1.083       .  S
C1323      C1324   1.407       .  A
C1324      C1325   1.405       .  A
C1325      C1326   1.398       .  A
C1325      H3349   1.083       .  S
C1326      H1334   1.083       .  S
H1333      C3341   1.083       .  S
C1335      C1336   1.403       .  A
C1336      C1337   1.396       .  A
C1336      H1349   1.083   1_545  S
C1337      H1350   1.083       .  S
C1338      C1339   1.401       .  A
C1338      C1341   1.439       .  S
C1339      C1340   1.400       .  A
C1339      H1351   1.083       .  S
C1340      H1352   1.083       .  S
C1341      C1342   1.206       .  T
C1342      C1343   1.440       .  S
C1343      C1344   1.399       .  A
C1343      C1348   1.400       .  A
C1344      C1345   1.397       .  A
C1344      H1353   1.084       .  S
C1345      C1346   1.407       .  A
C1345      H1354   1.083       .  S
C1346      C1347   1.408       .  A
C1347      C1348   1.400       .  A
C1347      H1355   1.083       .  S
C1348      H1356   1.083       .  S
C1357      C1358   1.401       .  A
C1357      C1362   1.406       .  A
C1358      C1359   1.398       .  A
C1358      H1371   1.080       .  S
C1359      C1360   1.400       .  A
C1359      H1372   1.083       .  S
C1360      C1361   1.400       .  A
C1360      C1363   1.440       .  S
C1361      C1362   1.399       .  A
C1361      H1373   1.083       .  S
C1362      H1374   1.083       .  S
C1363      C1364   1.206       .  T
C1364      C1365   1.440       .  S
C1365      C1366   1.401       .  A
C1365      C1370   1.400       .  A
C1366      C1367   1.399       .  A
C1366      H1375   1.084       .  S
C1367      C1368   1.404       .  A
C1368      C1369   1.404       .  A
C1369      C1370   1.398       .  A
C1369      H1377   1.083       .  S
C1370      H1378   1.083       .  S
C1379      C1380   1.403       .  A
C1379      C1384   1.404       .  A
C1380      C1381   1.398       .  A
C1380      H1393   1.083       .  S
C1381      C1382   1.400       .  A
C1381      H1394   1.083       .  S
C1382      C1383   1.399       .  A
C1382      C1385   1.435       .  S
C1383      C1384   1.395       .  A
C1383      H1395   1.084       .  S
C1384      H1396   1.083       .  S
C1385      C1386   1.203       .  T
C1386      C1387   1.435       .  S
C1387      C1388   1.399       .  A
C1387      C1392   1.400       .  A
C1388      C1389   1.396       .  A
C1388      H1397   1.084       .  S
C1389      C1390   1.405       .  A
C1389      H1398   1.083       .  S
C1390      C1391   1.403       .  A
C1391      C1392   1.397       .  A
C1391      H3415   1.083       .  S
C1392      H1400   1.083       .  S
H1399      C3407   1.083       .  S
C1401      C1402   1.405       .  A
C1402      C1403   1.399       .  A
C1402      H1415   1.083   1_545  S
C1403      H1416   1.083       .  S
C1404      C1405   1.402       .  A
C1404      C1407   1.445       .  S
C1405      C1406   1.402       .  A
C1405      H1417   1.083       .  S
C1406      H1418   1.083       .  S
C1407      C1408   1.209       .  T
C1408      C1409   1.444       .  S
C1409      C1410   1.400       .  A
C1409      C1414   1.400       .  A
C1410      C1411   1.400       .  A
C1410      H1419   1.083       .  S
C1411      C1412   1.408       .  A
C1411      H1420   1.083       .  S
C1412      C1413   1.405       .  A
C1413      C1414   1.400       .  A
C1413      H1421   1.079       .  S
C1414      H1422   1.083       .  S
C1423      C1424   1.408       .  A
C1423      C1428   1.409       .  A
C1424      C1425   1.399       .  A
C1424      H1437   1.083       .  S
C1425      C1426   1.400       .  A
C1425      H1438   1.083       .  S
C1426      C1427   1.399       .  A
C1426      C1429   1.440       .  S
C1427      C1428   1.398       .  A
C1427      H1439   1.084       .  S
C1428      H1440   1.083       .  S
C1429      C1430   1.206       .  T
C1430      C1431   1.440       .  S
C1431      C1432   1.400       .  A
C1431      C1436   1.399       .  A
C1432      C1433   1.399       .  A
C1432      H1441   1.084       .  S
C1433      C1434   1.409       .  A
C1433      H1442   1.083       .  S
C1435      H1443   1.083       .  S
C1445      C1446   1.408       .  A
C1445      C1450   1.408       .  A
C1446      C1447   1.396       .  A
C1446      H1459   1.083       .  S
C1447      C1448   1.398       .  A
C1447      H1460   1.084       .  S
C1448      C1449   1.400       .  A
C1448      C1451   1.437       .  S
C1449      C1450   1.399       .  A
C1449      H1461   1.083       .  S
C1450      H1462   1.083       .  S
C1451      C1452   1.204       .  T
C1452      C1453   1.437       .  S
C1453      C1454   1.399       .  A
C1453      C1458   1.399       .  A
C1454      C1455   1.398       .  A
C1454      H1463   1.084       .  S
C1455      C1456   1.408       .  A
C1455      H1464   1.083       .  S
C1456      C1457   1.407       .  A
C1457      C1458   1.397       .  A
C1457      H1465   1.083       .  S
C1458      H1466   1.084       .  S
C1467      C1468   1.407       .  A
C1467      C1472   1.408       .  A
C1468      C1469   1.401       .  A
C1468      H1481   1.083       .  S
C1469      C1470   1.401       .  A
C1469      H1482   1.083       .  S
C1470      C1471   1.398       .  A
C1470      C1473   1.441       .  S
C1471      C1472   1.397       .  A
C1471      H1483   1.084       .  S
C1472      H1484   1.083       .  S
C1473      C1474   1.207       .  T
C1474      C1475   1.441       .  S
C1475      C1476   1.401       .  A
C1475      C1480   1.399       .  A
C1476      C1477   1.400       .  A
C1476      H1485   1.083       .  S
C1477      C1478   1.408       .  A
C1477      H1486   1.083       .  S
C1478      C1479   1.407       .  A
C1479      C1480   1.398       .  A
C1480      H1488   1.084       .  S
C1489      C1490   1.403       .  A
C1489      C1494   1.404       .  A
C1490      C1491   1.396       .  A
C1490      H1503   1.083       .  S
C1491      C1492   1.399       .  A
C1491      H1504   1.083       .  S
C1492      C1493   1.400       .  A
C1492      C1495   1.436       .  S
C1493      C1494   1.397       .  A
C1493      H1505   1.083       .  S
C1494      H1506   1.083       .  S
C1495      C1496   1.204       .  T
C1496      C1497   1.436       .  S
C1497      C1502   1.397       .  A
C1498      C1499   1.400       .  A
C1498      H1507   1.083       .  S
C1499      C1500   1.407       .  A
C1499      H1508   1.083       .  S
C1500      C1501   1.408       .  A
C1501      H1509   1.083       .  S
C1502      H1510   1.084       .  S
C1511      C1512   1.408       .  A
C1511      C1516   1.408       .  A
C1512      C1513   1.397       .  A
C1512      H1525   1.083       .  S
C1513      C1514   1.399       .  A
C1513      H1526   1.084       .  S
C1514      C1515   1.401       .  A
C1514      C1517   1.442       .  S
C1515      C1516   1.402       .  A
C1515      H1527   1.083       .  S
C1516      H1528   1.083       .  S
C1517      C3534   1.207       .  T
C1518      C1519   1.442       .  S
C1518      C3533   1.207       .  T
C1519      C1520   1.401       .  A
C1519      C1524   1.401       .  A
C1520      C1521   1.400       .  A
C1520      H1529   1.083       .  S
C1521      C1522   1.406       .  A
C1521      H1530   1.083       .  S
C1522      C1523   1.404       .  A
C1523      C1524   1.398       .  A
C1523      H1531   1.083       .  S
C1524      H1532   1.084       .  S
C1533      C1534   1.408       .  A
C1533      C1538   1.408       .  A
C1534      C1535   1.399       .  A
C1534      H1547   1.083       .  S
C1535      C1536   1.399       .  A
C1535      H1548   1.083       .  S
C1536      C1537   1.399       .  A
C1536      C1539   1.437       .  S
C1537      C1538   1.396       .  A
C1537      H1549   1.084       .  S
C1538      H1550   1.083       .  S
C1539      C1540   1.205       .  T
C1540      C1541   1.437       .  S
C1541      C1542   1.399       .  A
C1541      C1546   1.401       .  A
C1542      C1543   1.395       .  A
C1542      H1551   1.084       .  S
C1543      C1544   1.402       .  A
C1543      H1552   1.084       .  S
C1544      C1545   1.404       .  A
C1545      C1546   1.399       .  A
C1545      H1553   1.083       .  S
C1546      H1554   1.083       .  S
C1555      C1556   1.406       .  A
C1555      C1560   1.403       .  A
C1556      C1557   1.399       .  A
C1556      H1569   1.083       .  S
C1557      C1558   1.400       .  A
C1557      H1570   1.083       .  S
C1558      C1559   1.401       .  A
C1558      C1561   1.441       .  S
C1559      C1560   1.399       .  A
C1559      H1571   1.083       .  S
C1560      H1572   1.083       .  S
C1561      C1562   1.207       .  T
C1563      C1564   1.401       .  A
C1563      C1568   1.401       .  A
C1564      C1565   1.399       .  A
C1564      H1573   1.083       .  S
C1565      C1566   1.406       .  A
C1565      H1574   1.083       .  S
C1566      C1567   1.404       .  A
C1567      C1568   1.399       .  A
C1567      H1575   1.083       .  S
C1568      H1576   1.083       .  S
C1577      C1578   1.403       .  A
C1577      C1582   1.404       .  A
C1578      C1579   1.399       .  A
C1578      H1591   1.083       .  S
C1579      C1580   1.401       .  A
C1579      H1592   1.083       .  S
C1580      C1581   1.399       .  A
C1580      C1583   1.438       .  S
C1581      C1582   1.396       .  A
C1581      H1593   1.083       .  S
C1582      H1594   1.083       .  S
C1583      C3600   1.205       .  T
C1584      C1585   1.438       .  S
C1584      C3599   1.205   1_455  T
C1585      C1586   1.401       .  A
C1585      C1590   1.398       .  A
C1586      C1587   1.399       .  A
C1586      H1595   1.083       .  S
C1587      C1588   1.404       .  A
C1587      H1596   1.083       .  S
C1588      C1589   1.406       .  A
C1589      C1590   1.396       .  A
C1589      H1597   1.083       .  S
C1590      H1598   1.084       .  S
C1599      C1600   1.404       .  A
C1599      C1604   1.404       .  A
C1600      C1601   1.397       .  A
C1600      H1613   1.083       .  S
C1601      C1602   1.400       .  A
C1601      H1614   1.083       .  S
C1602      C1603   1.401       .  A
C1602      C1605   1.438       .  S
C1603      C1604   1.399       .  A
C1603      H1615   1.083       .  S
C1604      H1616   1.083       .  S
C1605      C1606   1.205       .  T
C1606      C1607   1.438       .  S
C1607      C1608   1.400       .  A
C1607      C1612   1.400       .  A
C1608      C1609   1.398       .  A
C1608      H1617   1.083       .  S
C1609      C1610   1.406       .  A
C1609      H1618   1.083       .  S
C1610      C1611   1.403       .  A
C1611      C1612   1.397       .  A
C1611      H1619   1.083       .  S
C1612      H1620   1.083       .  S
C1621      C1622   1.402       .  A
C1621      C1626   1.405       .  A
C1622      C1623   1.396       .  A
C1622      H1635   1.083       .  S
C1623      C1624   1.400       .  A
C1623      H1636   1.083       .  S
C1624      C1625   1.402       .  A
C1624      C1627   1.439       .  S
C1625      C1626   1.400       .  A
C1625      H1637   1.083       .  S
C1627      C1628   1.206       .  T
C1628      C1629   1.439       .  S
C1629      C1630   1.399       .  A
C1629      C1634   1.399       .  A
C1630      C1631   1.399       .  A
C1630      H1639   1.083       .  S
C1631      C1632   1.408       .  A
C1631      H1640   1.083       .  S
C1632      C1633   1.408       .  A
C1633      C1634   1.398       .  A
C1633      H1641   1.083       .  S
C1634      H1642   1.084       .  S
C1643      C1644   1.408       .  A
C1643      C1648   1.409       .  A
C1644      C1645   1.396       .  A
C1644      H1657   1.083       .  S
C1645      C1646   1.398       .  A
C1645      H1658   1.084       .  S
C1646      C1647   1.400       .  A
C1646      C1649   1.440       .  S
C1647      C1648   1.401       .  A
C1647      H1659   1.083       .  S
C1648      H1660   1.083       .  S
C1649      C1650   1.206       .  T
C1650      C1651   1.440       .  S
C1651      C1652   1.400       .  A
C1651      C1656   1.401       .  A
C1652      C1653   1.398       .  A
C1652      H1661   1.083       .  S
C1653      C1654   1.405       .  A
C1654      C3096   1.483       .  S
C1654      C3671   1.405       .  A
C1655      C3670   1.405       .  A
C1655      C3672   1.399       .  A
C1655      H1663   1.083       .  S
C1656      C3671   1.399       .  A
C1656      H1664   1.083       .  S
C1665      C1666   1.409       .  A
C1665      C1670   1.408       .  A
C1666      C1667   1.402       .  A
C1666      H1679   1.083       .  S
C1667      C1668   1.401       .  A
C1667      H1680   1.083       .  S
C1668      C1669   1.396       .  A
C1668      C1671   1.437       .  S
C1669      C1670   1.392       .  A
C1669      H1681   1.084       .  S
C1670      H1682   1.083       .  S
C1671      C1672   1.204       .  T
C1672      C1673   1.437       .  S
C1673      C3690   1.401       .  A
C1673      C1678   1.399       .  A
C1674      C3689   1.401       .  A
C1674      C1675   1.397       .  A
C1674      H1683   1.084       .  S
C1675      C3692   1.402       .  A
C1675      H1684   1.083       .  S
C1676      C3094   1.479       .  S
C1676      C3691   1.402       .  A
C1676      C1677   1.406       .  A
C1677      C1678   1.398       .  A
C1677      H1685   1.083       .  S
C1678      H1686   1.083       .  S
C1687      C1688   1.405       .  A
C1687      C1692   1.408       .  A
C1688      C1689   1.397       .  A
C1688      H1701   1.079       .  S
C1689      C1690   1.399       .  A
C1689      H1702   1.084       .  S
C1690      C1691   1.401       .  A
C1690      C1693   1.443       .  S
C1691      C1692   1.402       .  A
C1691      H1703   1.083       .  S
C1692      H1704   1.082       .  S
C1693      C1694   1.208       .  T
C1694      C1695   1.443       .  S
C1695      C1696   1.401       .  A
C1695      C1700   1.399       .  A
C1696      C1697   1.402       .  A
C1696      H1705   1.083       .  S
C1697      C1698   1.408       .  A
C1697      H1706   1.083       .  S
C1698      C1699   1.408       .  A
C1699      C1700   1.398       .  A
C1699      H1707   1.083       .  S
C1700      H1708   1.084       .  S
C1709      C1710   1.408       .  A
C1709      C1714   1.406       .  A
C1710      C1711   1.402       .  A
C1710      H1723   1.082       .  S
C1711      C1712   1.401       .  A
C1711      H1724   1.083       .  S
C1712      C1713   1.399       .  A
C1712      C1715   1.443       .  S
C1713      C1714   1.397       .  A
C1713      H1725   1.084       .  S
C1714      H1726   1.083       .  S
C1715      C1716   1.208       .  T
C1716      C1717   1.443       .  S
C1717      C1718   1.399       .  A
C1717      C1722   1.401       .  A
C1718      C1719   1.397       .  A
C1718      H1727   1.084       .  S
C1719      C1720   1.407       .  A
C1719      H1728   1.083       .  S
C1720      C1721   1.409       .  A
C1721      C1722   1.402       .  A
C1721      H1729   1.083   1_455  S
C1722      H1730   1.083       .  S
C1731      C1732   1.407       .  A
C1731      C1736   1.406       .  A
C1732      C1733   1.400       .  A
C1732      H1745   1.083       .  S
C1733      C1734   1.401       .  A
C1733      H1746   1.083       .  S
C1734      C1735   1.399       .  A
C1734      C1737   1.440       .  S
C1735      C1736   1.397       .  A
C1735      H1747   1.084       .  S
C1736      H1748   1.083       .  S
C1737      C1738   1.206       .  T
C1738      C1739   1.440       .  S
C1739      C1740   1.400       .  A
C1739      C1744   1.402       .  A
C1740      C1741   1.396       .  A
C1740      H1749   1.084       .  S
C1741      C1742   1.401       .  A
C1741      H1750   1.080       .  S
C1742      C1743   1.404       .  A
C1743      C1744   1.400       .  A
C1743      H1751   1.083       .  S
C1744      H1752   1.083       .  S
C1753      C3093   1.486       .  S
C1753      C1754   1.407       .  A
C1753      C1758   1.404       .  A
C1754      C1755   1.399       .  A
C1754      H1767   1.083       .  S
C1755      C1756   1.400       .  A
C1755      H1768   1.083       .  S
C1756      C1757   1.402       .  A
C1756      C1759   1.444       .  S
C1757      C1758   1.400       .  A
C1757      H1769   1.083       .  S
C1758      H1770   1.083   1_455  S
C1759      C1760   1.208       .  T
C1760      C1761   1.444       .  S
C1761      C1762   1.401       .  A
C1761      C1766   1.399       .  A
C1762      C1763   1.401       .  A
C1762      H1771   1.083       .  S
C1763      C1764   1.407       .  A
C1763      H1772   1.082       .  S
C1764      C1765   1.406       .  A
C1765      C1766   1.398       .  A
C1765      H1773   1.079       .  S
C1766      H1774   1.084       .  S
C1775      C1776   1.405       .  A
C1775      C1780   1.407       .  A
C1776      C1777   1.401       .  A
C1776      H1789   1.083       .  S
C1777      C1778   1.402       .  A
C1777      H1790   1.083       .  S
C1778      C1779   1.401       .  A
C1778      C1781   1.445       .  S
C1779      C1780   1.400       .  A
C1779      H1791   1.083       .  S
C1780      H1792   1.083       .  S
C1781      C1782   1.209       .  T
C1782      C1783   1.445       .  S
C1783      C1784   1.401       .  A
C1783      C1788   1.402       .  A
C1784      C1785   1.399       .  A
C1784      H1793   1.083       .  S
C1785      C1786   1.406       .  A
C1785      H1794   1.083       .  S
C1786      C1787   1.404       .  A
C1787      C1788   1.401       .  A
C1788      H1796   1.083       .  S
C1797      C3091   1.482       .  S
C1797      C1798   1.403       .  A
C1797      C1802   1.406       .  A
C1798      C1799   1.398       .  A
C1798      H1811   1.083       .  S
C1799      C1800   1.401       .  A
C1799      H1812   1.083       .  S
C1800      C1801   1.400       .  A
C1800      C1803   1.440       .  S
C1801      C1802   1.398       .  A
C1801      H1813   1.083       .  S
C1802      H3830   1.083   1_455  S
C1803      C1804   1.206       .  T
C1804      C1805   1.440       .  S
C1805      C1806   1.401       .  A
C1805      C1810   1.401       .  A
C1806      C1807   1.398       .  A
C1806      H1815   1.083       .  S
C1807      C1808   1.402       .  A
C1807      H1816   1.081       .  S
C1808      C1809   1.403       .  A
C1809      C1810   1.398       .  A
C1809      H1817   1.083       .  S
C1810      H1818   1.083       .  S
H1814      C3818   1.083       .  S
C1819      C1820   1.406       .  A
C1819      C1824   1.408       .  A
C1820      C1821   1.402       .  A
C1820      H1833   1.083       .  S
C1821      C1822   1.402       .  A
C1821      H1834   1.083       .  S
C1822      C1823   1.397       .  A
C1822      C1825   1.438       .  S
C1823      C1824   1.394       .  A
C1823      H1835   1.084       .  S
C1824      H1836   1.083       .  S
C1825      C1826   1.205       .  T
C1826      C1827   1.438       .  S
C1827      C1828   1.402       .  A
C1827      C1832   1.400       .  A
C1828      C1829   1.399       .  A
C1828      H1837   1.083       .  S
C1829      C1830   1.403       .  A
C1829      H1838   1.083       .  S
C1830      C1831   1.401       .  A
C1831      C1832   1.397       .  A
C1831      H1839   1.081       .  S
C1832      H1840   1.083       .  S
C1841      C1842   1.404       .  A
C1841      C1846   1.403       .  A
C1842      C1843   1.397       .  A
C1842      H1855   1.083       .  S
C1843      C1844   1.399       .  A
C1843      H1856   1.083       .  S
C1844      C1845   1.402       .  A
C1844      C1847   1.439       .  S
C1845      C1846   1.399       .  A
C1845      H1857   1.084       .  S
C1846      H1858   1.083       .  S
C1847      C1848   1.206       .  T
C1848      C1849   1.439       .  S
C1849      C1850   1.397       .  A
C1849      C1854   1.402       .  A
C1850      C1851   1.393       .  A
C1850      H1859   1.084       .  S
C1851      C1852   1.408       .  A
C1851      H1860   1.083       .  S
C1853      H1861   1.083   1_545  S
C1863      C1864   1.405       .  A
C1863      C1868   1.407       .  A
C1864      C1865   1.397       .  A
C1864      H1877   1.080       .  S
C1865      C1866   1.399       .  A
C1865      H1878   1.084       .  S
C1866      C1867   1.401       .  A
C1866      C1869   1.440       .  S
C1867      C1868   1.400       .  A
C1867      H1879   1.083       .  S
C1868      H1880   1.083       .  S
C1869      C1870   1.206       .  T
C1870      C1871   1.441       .  S
C1871      C1872   1.400       .  A
C1871      C1876   1.399       .  A
C1873      H1882   1.083       .  S
C1874      C1875   1.409       .  A
C1875      C1876   1.398       .  A
C1875      H1883   1.083       .  S
C1876      H1884   1.084       .  S
C1885      C1886   1.408       .  A
C1885      C1890   1.408       .  A
C1886      C1887   1.395       .  A
C1886      H1899   1.083       .  S
C1887      C1888   1.397       .  A
C1887      H1900   1.084       .  S
C1888      C1889   1.399       .  A
C1888      C1891   1.435       .  S
C1889      C1890   1.398       .  A
C1889      H1901   1.084       .  S
C1890      H1902   1.083       .  S
C1891      C1892   1.203       .  T
C1892      C1893   1.435       .  S
C1893      C1894   1.398       .  A
C1893      C1898   1.399       .  A
C1894      C1895   1.396       .  A
C1894      H1903   1.084       .  S
C1895      C1896   1.407       .  A
C1895      H1904   1.083       .  S
C1896      C1897   1.408       .  A
C1897      C1898   1.397       .  A
C1897      H1905   1.083       .  S
C1898      H1906   1.084       .  S
C1907      C1908   1.408       .  A
C1907      C1912   1.408       .  A
C1908      C1909   1.393       .  A
C1908      H3937   1.083       .  S
C1909      C1910   1.396       .  A
C1909      H1922   1.084       .  S
C1910      C1911   1.400       .  A
C1910      C1913   1.434       .  S
C1911      C1912   1.400       .  A
C1911      H1923   1.083       .  S
C1912      H1924   1.083       .  S
C1913      C1914   1.203       .  T
C1914      C1915   1.434       .  S
C1915      C1916   1.399       .  A
C1915      C1920   1.398       .  A
C1916      C1917   1.398       .  A
C1916      H1925   1.083       .  S
C1917      C1918   1.408       .  A
C1917      H1926   1.083       .  S
C1918      C1919   1.407       .  A
C1919      C1920   1.394       .  A
C1919      H1927   1.083       .  S
C1920      H1928   1.084       .  S
H1921      C3924   1.083       .  S
C1929      C1930   1.408       .  A
C1929      C1934   1.409       .  A
C1930      C1931   1.397       .  A
C1930      H1943   1.083       .  S
C1931      C1932   1.399       .  A
C1931      H1944   1.084       .  S
C1932      C1933   1.400       .  A
C1932      C1935   1.439       .  S
C1933      C1934   1.400       .  A
C1933      H1945   1.083       .  S
C1934      H1946   1.083       .  S
C1935      C1936   1.206       .  T
C1936      C1937   1.439       .  S
C1937      C1938   1.400       .  A
C1937      C1942   1.398       .  A
C1938      C1939   1.400       .  A
C1938      H1947   1.083       .  S
C1939      C1940   1.407       .  A
C1939      H1948   1.083       .  S
C1940      C1941   1.408       .  A
C1941      C1942   1.397       .  A
C1941      H1949   1.083       .  S
C1942      H1950   1.084       .  S
C1951      C1952   1.403       .  A
C1951      C1956   1.405       .  A
C1952      C1953   1.394       .  A
C1952      H1965   1.083       .  S
C1953      C1954   1.398       .  A
C1953      H1966   1.084       .  S
C1954      C1955   1.400       .  A
C1954      C1957   1.434       .  S
C1955      C1956   1.398       .  A
C1955      H1967   1.083       .  S
C1956      H1968   1.083       .  S
C1958      C1959   1.432       .  S
C1959      C1960   1.396       .  A
C1959      C1964   1.399       .  A
C1960      C1961   1.392       .  A
C1960      H1969   1.084       .  S
C1961      C1962   1.407       .  A
C1961      H1970   1.083       .  S
C1962      C1963   1.407       .  A
C1963      C1964   1.398       .  A
C1963      H1971   1.083       .  S
C1964      H1972   1.083       .  S
C1973      C1974   1.408       .  A
C1973      C1978   1.408       .  A
C1974      C1975   1.403       .  A
C1974      H1987   1.083       .  S
C1975      C1976   1.402       .  A
C1975      H1988   1.083       .  S
C1976      C1977   1.397       .  A
C1976      C3995   1.441       .  S
C1977      C1978   1.395       .  A
C1977      H4005   1.084       .  S
C1978      H1990   1.083       .  S
C1979      C3992   1.441       .  S
C1979      C1980   1.207       .  T
C1980      C1981   1.441       .  S
C1981      C1982   1.401       .  A
C1981      C1986   1.400       .  A
C1982      C1983   1.399       .  A
C1982      H1991   1.083       .  S
C1983      C1984   1.403       .  A
C1983      H1992   1.083       .  S
C1984      C1985   1.407       .  A
C1985      C1986   1.399       .  A
C1985      H1993   1.083       .  S
C1986      H1994   1.083       .  S
H1989      C3993   1.084       .  S
C1995      C1996   1.402       .  A
C1995      C2000   1.405       .  A
C1996      C1997   1.397       .  A
C1996      H2009   1.083       .  S
C1997      C1998   1.400       .  A
C1997      H2010   1.084       .  S
C1998      C1999   1.401       .  A
C1998      C2001   1.440       .  S
C1999      C2000   1.400       .  A
C1999      H2011   1.083       .  S
C2000      H2012   1.083       .  S
C2001      C2002   1.206       .  T
C2002      C2003   1.440       .  S
C2003      C2004   1.399       .  A
C2003      C2008   1.400       .  A
C2004      C2005   1.399       .  A
C2004      H2013   1.083       .  S
C2005      C2006   1.410       .  A
C2005      H2014   1.083       .  S
C2006      C2007   1.407       .  A
C2007      C2008   1.398       .  A
C2007      H2015   1.083       .  S
C2008      H2016   1.084       .  S
O2017     Ni2023   1.924       .  S
O2017      C2038   1.269       .  A
O2018     Ni2041   1.900       .  S
O2018      C2027   1.267       .  A
O2019     Ni2023   1.914       .  S
O2019     Ni2041   1.907       .  S
O2019     Ni2035   1.908       .  S
O2019      H2042   0.968       .  S
C2020      O2037   1.271       .  A
C2020      O2029   1.276       .  A
C2020      C2970   1.479       .  S
O2021     Ni2040   1.935       .  S
O2021      C2027   1.273       .  A
O2022     Ni2040   1.909       .  S
O2022      C2024   1.270       .  A
Ni2023     O2026   1.918       .  S
Ni2023     O2028   1.904       .  S
C2024      O2034   1.273       .  A
C2024      C3014   1.482       .  S
O2025     Ni2041   1.915       .  S
O2025      C2031   1.275       .  A
O2026      C2031   1.275       .  A
C2027      C2937   1.483       .  S
O2028      C2030   1.268       .  A
O2029     Ni2040   1.931       .  S
C2030      O2036   1.270       .  A
C2030      C2893   1.480       .  S
C2031      C2926   1.481       .  S
H2032      O2033   0.966       .  S
O2033     Ni2041   1.911       .  S
O2033     Ni2035   1.913       .  S
O2033     Ni2040   1.915       .  S
O2034     Ni2035   1.931       .  S
Ni2035     O2039   1.915       .  S
Ni2035     O2037   1.901       .  S
O2036     Ni2041   1.919       .  S
C2038      O2039   1.267       .  A
C2038      C2981   1.484       .  S
O2043     Ni2049   1.923       .  S
O2043      C2064   1.271       .  A
O2044     Ni2067   1.898       .  S
O2044      C2053   1.265       .  A
O2045     Ni2049   1.922   1_455  S
O2045     Ni3069   1.915   1_445  S
C2046      O2063   1.269       .  A
C2046      O2055   1.271       .  A
C2046      C2827   1.478       .  S
O2047     Ni2066   1.926       .  S
O2047      C2053   1.271       .  A
O2048     Ni2066   1.901       .  S
O2048      C2050   1.271       .  A
Ni2049     O3062   1.907   1_545  S
C2050      O3068   1.280       .  A
C2050      C3890   1.484       .  S
O2051     Ni3075   1.905   1_545  S
O2051      C2057   1.268       .  A
O2052      C2057   1.273       .  A
C2053      C2904   1.480       .  S
O2054     Ni3057   1.905       .  S
O2054      C2056   1.269       .  A
C2056      O2062   1.273       .  A
C2056      C2948   1.482       .  S
C2057      C2915   1.482       .  S
H2058      O2059   0.966       .  S
O2059     Ni2061   1.914       .  S
O2060      C3058   1.280       .  A
Ni2061     O3073   1.911       .  S
Ni2061     O2063   1.910       .  S
Ni2061     O3053   1.914   1_655  S
C2064      O2065   1.269   1_545  A
C2064      C2860   1.482       .  S
O2065     Ni3069   1.908       .  S
Ni2067     O3059   1.906       .  S
C2069      H2070   1.110       .  S
C2069      C2075   1.528       .  S
C2069      C2074   1.536       .  S
C2069      C2073   1.534       .  S
C2071      H2072   1.110       .  S
C2071      C2077   1.545       .  S
C2071      C2076   1.543       .  S
C2071      C2078   1.540       .  S
C2073      C2076   1.378       .  D
C2073      C2695   1.489       .  S
C2074      C2077   1.382       .  D
C2074      C2717   1.486       .  S
C2075      C2078   1.367       .  D
C2075      C2750   1.476       .  S
C2076      C2783   1.488       .  S
C2077      C2772   1.495       .  S
C2078      C2816   1.481       .  S
C2079      H2080   1.111       .  S
C2079      C2085   1.542   1_655  S
C2079      C2084   1.539       .  S
C2079      C3091   1.538   1_655  S
C2081      H2082   1.112       .  S
C2081      C2087   1.535       .  S
C2081      C3094   1.531   1_655  S
C2081      C2088   1.532   1_655  S
C2083      C3087   1.538   1_445  S
C2083      C2086   1.374       .  D
C2084      C2087   1.375       .  D
C2084      C2794   1.489       .  S
C2085      C2088   1.377       .  D
C2086      C3089   1.533   1_445  S
C2087      C2629   1.480       .  S
C2089      H2090   1.111       .  S
C2089      C2095   1.538       .  S
C2089      C2094   1.540       .  S
C2089      C2093   1.536       .  S
C2091      H2092   1.111       .  S
C2091      C2097   1.532       .  S
C2091      C2096   1.535       .  S
C2091      C2098   1.529       .  S
C2093      C2096   1.375       .  D
C2093      C2563   1.484       .  S
C2094      C2097   1.376       .  D
C2094      C2596   1.483       .  S
C2095      C2098   1.373       .  D
C2095      C2607   1.479       .  S
C2096      C2497   1.479       .  S
C2097      C2530   1.485       .  S
C2098      C2552   1.477       .  S
C2099      H2100   1.111       .  S
C2099      C2105   1.533       .  S
C2099      C2104   1.534       .  S
C2099      C2103   1.531       .  S
C2101      H2102   1.111       .  S
C2101      C2107   1.537       .  S
C2101      C2106   1.539       .  S
C2101      C2108   1.534       .  S
C2103      C2106   1.375       .  D
C2103      C3003   1.480       .  S
C2104      C2107   1.376       .  D
C2104      C2959   1.476       .  S
C2105      C2108   1.373       .  D
C2105      C2992   1.485       .  S
C2106      C2618   1.482       .  S
C2107      C2574   1.485       .  S
C2108      C2585   1.476       .  S
O2109     Ni2115   1.926       .  S
O2109      C2130   1.270       .  A
O2110     Ni2133   1.907       .  S
O2110      C2119   1.267       .  A
O2111     Ni2115   1.908       .  S
O2111     Ni2133   1.905       .  S
O2111     Ni2127   1.909       .  S
O2111      H2134   0.966       .  S
C2112      O2129   1.276       .  A
C2112      O2121   1.277       .  A
C2112      C2464   1.479       .  S
O2113     Ni2132   1.934       .  S
O2113      C2119   1.272       .  A
O2114     Ni2132   1.908       .  S
O2114      C2116   1.269       .  A
Ni2115     O2118   1.920       .  S
Ni2115     O2120   1.907       .  S
C2116      O2126   1.270       .  A
C2116      C2431   1.481       .  S
O2117     Ni2133   1.914       .  S
O2117      C2123   1.275       .  A
O2118      C2123   1.277       .  A
C2119      C2519   1.482       .  S
O2120      C2122   1.269       .  A
O2121     Ni2132   1.926       .  S
C2122      O2128   1.272       .  A
C2122      C2541   1.482       .  S
C2123      C2508   1.480       .  S
H2124      O2125   0.966       .  S
O2125     Ni2133   1.910       .  S
O2125     Ni2127   1.910       .  S
O2125     Ni2132   1.913       .  S
O2126     Ni2127   1.919       .  S
Ni2127     O2131   1.916       .  S
Ni2127     O2129   1.910       .  S
O2128     Ni2133   1.925       .  S
C2130      O2131   1.269       .  A
C2130      C2475   1.486       .  S
O2135     Ni2141   1.928       .  S
O2135      C2156   1.270       .  A
O2136     Ni3167   1.906   1_545  S
O2136      C2145   1.268       .  A
O2137     Ni2141   1.921       .  S
O2137     Ni2153   1.906       .  S
O2137      H2160   0.966       .  S
C2138      O2155   1.267       .  A
C2138      O2147   1.274       .  A
C2138      C2739   1.480       .  S
O2139     Ni2158   1.933       .  S
O2139      C2145   1.274       .  A
O2140     Ni3166   1.903       .  S
O2140      C2142   1.270       .  A
Ni2141     O2144   1.923       .  S
Ni2141     O2146   1.905       .  S
C2142      O2152   1.276       .  A
C2142      C2728   1.482       .  S
O2143      C2149   1.272       .  A
O2144      C2149   1.275       .  A
C2145      C2486   1.489       .  S
O2146      C2148   1.268       .  A
O2147     Ni2158   1.938       .  S
C2148      O3162   1.271       .  A
C2148      C3450   1.483       .  S
C2149      C2453   1.481       .  S
H2150      O2151   0.966       .  S
O2151     Ni3167   1.920   1_545  S
O2151     Ni2158   1.920       .  S
Ni2153     O2157   1.909       .  S
O2154      C3156   1.271       .  A
C2156      O2157   1.267       .  A
C2156      C2706   1.483       .  S
Ni2158     O3148   1.906   1_545  S
Ni2159     O3144   1.901       .  S
Ni2159     O3159   1.916       .  S
C2161      H2162   1.111       .  S
C2161      C2167   1.539       .  S
C2161      C2166   1.534       .  S
C2161      C2165   1.533       .  S
C2163      H2164   1.111       .  S
C2163      C2169   1.537       .  S
C2163      C2168   1.533       .  S
C2163      C2170   1.542       .  S
C2165      C2168   1.370       .  D
C2165      C2838   1.477       .  S
C2166      C2169   1.373       .  D
C2166      C2849   1.483       .  S
C2167      C2170   1.382       .  D
C2167      C2871   1.487       .  S
C2168      C2387   1.477       .  S
C2169      C2365   1.479       .  S
C2170      C2420   1.494       .  S
C2171      H2172   1.111       .  S
C2171      C2177   1.538       .  S
C2173      H2174   1.111       .  S
C2173      C2180   1.535       .  S
C2175      C2178   1.374       .  D
C2175      C2398   1.480       .  S
C2176      C2179   1.377       .  D
C2176      C3384   1.481       .  S
C2177      C2180   1.376       .  D
C2177      C2409   1.488       .  S
C2178      C2299   1.482       .  S
C2179      C3340   1.489       .  S
C2180      C2343   1.482       .  S
O2181     Ni2187   1.932       .  S
O2181      C2202   1.271       .  A
O2182     Ni2205   1.904       .  S
O2182      C2191   1.267       .  A
O2183     Ni2187   1.915       .  S
O2183     Ni2205   1.912       .  S
O2183     Ni2199   1.912       .  S
O2183      H2206   0.966       .  S
C2184      O2201   1.275       .  A
C2184      O2193   1.277       .  A
C2184      C2255   1.481       .  S
O2185     Ni2204   1.933       .  S
O2185      C2191   1.272       .  A
O2186     Ni2204   1.908       .  S
O2186      C2188   1.269       .  A
Ni2187     O2190   1.920       .  S
Ni2187     O2192   1.908       .  S
C2188      O2198   1.271       .  A
C2188      C2244   1.482       .  S
O2189     Ni2205   1.916       .  S
O2189      C2195   1.274       .  A
O2190      C2195   1.275       .  A
C2191      C2640   1.482       .  S
O2192      C2194   1.270       .  A
O2193     Ni2204   1.924       .  S
C2194      O2200   1.272       .  A
C2194      C2651   1.484       .  S
C2195      C2673   1.480       .  S
H2196      O2197   0.966       .  S
O2197     Ni2205   1.907       .  S
O2197     Ni2199   1.907       .  S
O2197     Ni2204   1.913       .  S
O2198     Ni2199   1.921       .  S
Ni2199     O2203   1.909       .  S
Ni2199     O2201   1.912       .  S
O2200     Ni2205   1.925       .  S
C2202      O2203   1.267       .  A
C2202      C2288   1.485       .  S
O2207     Ni2213   1.933       .  S
O2207      C2228   1.272       .  A
O2208     Ni2231   1.909       .  S
O2208      C2217   1.267       .  A
O2209     Ni2213   1.918       .  S
O2209     Ni2231   1.909       .  S
O2209     Ni2225   1.907       .  S
O2209      H2232   0.966       .  S
C2210      O2227   1.272       .  A
C2210      O2219   1.275       .  A
C2210      C2310   1.484       .  S
O2211     Ni2230   1.931       .  S
O2211      C2217   1.271       .  A
O2212     Ni2230   1.905       .  S
O2212      C2214   1.269       .  A
Ni2213     O2216   1.923       .  S
Ni2213     O2218   1.914       .  S
C2214      O2224   1.274       .  A
C2214      C2321   1.484       .  S
O2215     Ni2231   1.915       .  S
O2215      C2221   1.276       .  A
O2216      C2221   1.276       .  A
C2217      C2277   1.486       .  S
O2218      C2220   1.270       .  A
O2219     Ni2230   1.926       .  S
C2220      O2226   1.269       .  A
C2220      C2233   1.483       .  S
C2221      C2266   1.482       .  S
H2222      O2223   0.966       .  S
O2223     Ni2231   1.915       .  S
O2223     Ni2225   1.916       .  S
O2223     Ni2230   1.918       .  S
O2224     Ni2225   1.933       .  S
Ni2225     O2229   1.909       .  S
Ni2225     O2227   1.911       .  S
O2226     Ni2231   1.916       .  S
C2228      O2229   1.267       .  A
C2228      C2354   1.485       .  S
C2233      C2234   1.408       .  A
C2233      C2238   1.409       .  A
C2234      C2235   1.400       .  A
C2234      H2247   1.083       .  S
C2235      C2236   1.400       .  A
C2235      H2248   1.083       .  S
C2236      C2237   1.397       .  A
C2236      C2239   1.438   1_554  S
C2237      C2238   1.396       .  A
C2237      H2249   1.084   1_554  S
C2238      H2250   1.083       .  S
C2239      C2240   1.205       .  T
C2240      C2241   1.438       .  S
C2241      C2242   1.400       .  A
C2241      C2246   1.398       .  A
C2242      C2243   1.399       .  A
C2242      H2251   1.084       .  S
C2243      C2244   1.408       .  A
C2243      H2252   1.083       .  S
C2244      C2245   1.409       .  A
C2245      C2246   1.396       .  A
C2245      H2253   1.083       .  S
C2246      H2254   1.084       .  S
C2255      C2256   1.408       .  A
C2255      C2260   1.408       .  A
C2256      C2257   1.400       .  A
C2256      H2269   1.083       .  S
C2257      C2258   1.400       .  A
C2257      H2270   1.083       .  S
C2258      C2259   1.397       .  A
C2258      C2261   1.436       .  S
C2259      C2260   1.394       .  A
C2259      H2271   1.084       .  S
C2260      H2272   1.083       .  S
C2261      C2262   1.204       .  T
C2262      C3271   1.436   1_556  S
C2263      C2264   1.400       .  A
C2263      C2268   1.398       .  A
C2263      C3270   1.438   1_544  S
C2264      C2265   1.399       .  A
C2264      H2273   1.084   1_554  S
C2265      C2266   1.407       .  A
C2265      H2274   1.083       .  S
C2266      C2267   1.409       .  A
C2267      C2268   1.397       .  A
C2267      H2275   1.083       .  S
C2268      H2276   1.084   1_545  S
C2277      C2278   1.409       .  A
C2277      C2282   1.409       .  A
C2278      C2279   1.397       .  A
C2278      H2291   1.083       .  S
C2279      C2280   1.398   1_554  A
C2279      H2292   1.084       .  S
C2280      C2281   1.402       .  A
C2280      C2283   1.444       .  S
C2281      C2282   1.403   1_556  A
C2281      H2293   1.083       .  S
C2282      H2294   1.083       .  S
C2284      C2285   1.444       .  S
C2285      C2286   1.399       .  A
C2285      C2290   1.401       .  A
C2286      C2287   1.400       .  A
C2286      H2295   1.083       .  S
C2287      C2288   1.409       .  A
C2287      H2296   1.083       .  S
C2288      C2289   1.408       .  A
C2289      C2290   1.400       .  A
C2289      H2297   1.083       .  S
C2290      H2298   1.083       .  S
C2299      C2300   1.405       .  A
C2299      C2304   1.404       .  A
C2300      C2301   1.398       .  A
C2300      H2313   1.083       .  S
C2301      C2302   1.401       .  A
C2301      H2314   1.083       .  S
C2302      C2303   1.400       .  A
C2302      C2305   1.440       .  S
C2303      C2304   1.398       .  A
C2303      H2315   1.083       .  S
C2304      H2316   1.083       .  S
C2305      C2306   1.206       .  T
C2306      C2307   1.440       .  S
C2307      C2308   1.397       .  A
C2307      C2312   1.401       .  A
C2308      C2309   1.395       .  A
C2308      H2317   1.084       .  S
C2309      C2310   1.409       .  A
C2309      H2318   1.083       .  S
C2310      C2311   1.409       .  A
C2311      C2312   1.402       .  A
C2311      H2319   1.083       .  S
C2312      H2320   1.083       .  S
C2321      C2322   1.408       .  A
C2321      C2326   1.408       .  A
C2322      C2323   1.399       .  A
C2322      H2335   1.083       .  S
C2323      C2324   1.400       .  A
C2323      H2336   1.084       .  S
C2324      C2325   1.400       .  A
C2324      C2327   1.442       .  S
C2325      C2326   1.399       .  A
C2325      H2337   1.083       .  S
C2326      H2338   1.083       .  S
C2327      C2328   1.207       .  T
C2328      C2329   1.442       .  S
C2329      C2330   1.401       .  A
C2329      C2334   1.400       .  A
C2330      C2331   1.401       .  A
C2330      H2339   1.083       .  S
C2331      C2332   1.406       .  A
C2331      H3348   1.083       .  S
C2332      C3187   1.485       .  S
C2332      C2333   1.404       .  A
C2333      C2334   1.397       .  A
C2334      H2342   1.083       .  S
H2340      C3339   1.082       .  S
C2343      C2344   1.403       .  A
C2343      C3356   1.406       .  A
C2344      C2345   1.396       .  A
C2344      H2357   1.083       .  S
C2345      C3354   1.400       .  A
C2345      H2358   1.084       .  S
C2346      C3353   1.400       .  A
C2346      C2347   1.402       .  A
C2346      C2349   1.441       .  S
C2347      C2348   1.400       .  A
C2347      H2359   1.083       .  S
C2348      C3351   1.406       .  A
C2348      H2360   1.083       .  S
C2349      C2350   1.207       .  T
C2350      C2351   1.442       .  S
C2351      C2352   1.399       .  A
C2351      C2356   1.400       .  A
C2352      C2353   1.398       .  A
C2352      H2361   1.084       .  S
C2353      C2354   1.408       .  A
C2353      H2362   1.083       .  S
C2354      C2355   1.409       .  A
C2355      C2356   1.401       .  A
C2355      H2363   1.083       .  S
C2356      H2364   1.083       .  S
C2365      C2366   1.401       .  A
C2365      C2370   1.405       .  A
C2366      C2367   1.397       .  A
C2366      H2379   1.080       .  S
C2367      C2368   1.400       .  A
C2367      H2380   1.083       .  S
C2368      C2369   1.400       .  A
C2368      C2371   1.437       .  S
C2369      C2370   1.397       .  A
C2369      H2381   1.083       .  S
C2370      H2382   1.083       .  S
C2371      C2372   1.205       .  T
C2372      C2373   1.437       .  S
C2373      C2374   1.400       .  A
C2373      C2378   1.399       .  A
C2374      C2375   1.398       .  A
C2374      H2383   1.084       .  S
C2375      C2376   1.404       .  A
C2375      H3392   1.083   1_545  S
C2376      C3184   1.482       .  S
C2376      C2377   1.405       .  A
C2377      C2378   1.397       .  A
C2377      H2385   1.083       .  S
C2378      H2386   1.083       .  S
H2384      C3383   1.083       .  S
C2387      C2388   1.402       .  A
C2387      C2392   1.404       .  A
C2388      C2389   1.398       .  A
C2388      H2401   1.083       .  S
C2389      C2390   1.401       .  A
C2389      H2402   1.083       .  S
C2390      C2391   1.399       .  A
C2390      C2393   1.436       .  S
C2391      C2392   1.395       .  A
C2391      H2403   1.083       .  S
C2392      H2404   1.083       .  S
C2393      C2394   1.204       .  T
C2394      C2395   1.436       .  S
C2395      C2396   1.399       .  A
C2395      C2400   1.400       .  A
C2396      C2397   1.396       .  A
C2396      H2405   1.083       .  S
C2397      C2398   1.405       .  A
C2397      H2406   1.083       .  S
C2398      C2399   1.403       .  A
C2399      C2400   1.398       .  A
C2400      H2408   1.083       .  S
C2409      C2410   1.406       .  A
C2409      C3422   1.405       .  A
C2410      C2411   1.399       .  A
C2410      H2423   1.083       .  S
C2411      C3420   1.400       .  A
C2411      H2424   1.083       .  S
C2412      C3419   1.401       .  A
C2412      C2413   1.402       .  A
C2412      C2415   1.445       .  S
C2413      C2414   1.401       .  A
C2413      H2425   1.083       .  S
C2414      C3417   1.404       .  A
C2414      H2426   1.083       .  S
C2415      C2416   1.209       .  T
C2416      C2417   1.444       .  S
C2417      C2418   1.400       .  A
C2417      C2422   1.400       .  A
C2418      C2419   1.401       .  A
C2418      H2427   1.083       .  S
C2419      C2420   1.409       .  A
C2419      H2428   1.082       .  S
C2420      C2421   1.405       .  A
C2421      C2422   1.399       .  A
C2421      H2429   1.079       .  S
C2422      H2430   1.083       .  S
C2431      C2432   1.408       .  A
C2431      C2436   1.408       .  A
C2432      C2433   1.398       .  A
C2432      H2445   1.083       .  S
C2433      C2434   1.399       .  A
C2433      H2446   1.084       .  S
C2434      C2435   1.398       .  A
C2434      C2437   1.436       .  S
C2435      C2436   1.396       .  A
C2435      H2447   1.084       .  S
C2436      H2448   1.083       .  S
C2437      C2438   1.204       .  T
C2438      C2439   1.436       .  S
C2439      C2440   1.399       .  A
C2439      C2444   1.398       .  A
C2440      C2441   1.398       .  A
C2440      H2449   1.084       .  S
C2441      C2442   1.408       .  A
C2441      H2450   1.083   1_545  S
C2442      C3156   1.481   1_545  S
C2442      C3451   1.408       .  A
C2443      C3450   1.408       .  A
C2443      C3452   1.398       .  A
C2443      H2451   1.083       .  S
C2444      C3451   1.397       .  A
C2444      H3460   1.084       .  S
H2452      C3452   1.084       .  S
C2453      C2454   1.408       .  A
C2453      C2458   1.408       .  A
C2454      C2455   1.395       .  A
C2454      H2467   1.083       .  S
C2455      C2456   1.398       .  A
C2455      H2468   1.084       .  S
C2456      C2457   1.399       .  A
C2456      C2459   1.436       .  S
C2457      C2458   1.398       .  A
C2457      H2469   1.083       .  S
C2458      H2470   1.083       .  S
C2459      C2460   1.204       .  T
C2460      C2461   1.436       .  S
C2461      C2462   1.399       .  A
C2461      C2466   1.398       .  A
C2462      C2463   1.398       .  A
C2462      H2471   1.084       .  S
C2463      C2464   1.408       .  A
C2463      H2472   1.083       .  S
C2464      C2465   1.407       .  A
C2465      C2466   1.396       .  A
C2465      H2473   1.083       .  S
C2466      H2474   1.084       .  S
C2475      C2476   1.407       .  A
C2475      C2480   1.409       .  A
C2476      C2477   1.402       .  A
C2476      H2489   1.083       .  S
C2477      C2478   1.402       .  A
C2477      H2490   1.083       .  S
C2478      C2479   1.399       .  A
C2478      C2481   1.445       .  S
C2479      C2480   1.399       .  A
C2479      H2491   1.084       .  S
C2480      H2492   1.083       .  S
C2481      C2482   1.209       .  T
C2482      C2483   1.445       .  S
C2483      C2484   1.402       .  A
C2483      C2488   1.399       .  A
C2484      C2485   1.403       .  A
C2484      H2493   1.083       .  S
C2485      C2486   1.409       .  A
C2485      H2494   1.083       .  S
C2486      C2487   1.409       .  A
C2487      C2488   1.399       .  A
C2487      H3503   1.083       .  S
C2488      H2496   1.084       .  S
H2495      C3495   1.083       .  S
C2497      C2498   1.404       .  A
C2497      C2502   1.404       .  A
C2498      C2499   1.396       .  A
C2498      H2511   1.083       .  S
C2499      C2500   1.399       .  A
C2499      H2512   1.083       .  S
C2500      C2501   1.401       .  A
C2500      C2503   1.438       .  S
C2501      C2502   1.398       .  A
C2501      H2513   1.083       .  S
C2502      H2514   1.083       .  S
C2503      C2504   1.205       .  T
C2504      C2505   1.438       .  S
C2505      C3514   1.400       .  A
C2505      C2510   1.398       .  A
C2506      C3513   1.399   1_545  A
C2506      C2507   1.399       .  A
C2506      H2515   1.083       .  S
C2507      C2508   1.408       .  A
C2507      H2516   1.083       .  S
C2508      C2509   1.408       .  A
C2509      C3518   1.394   1_545  A
C2509      H2517   1.083       .  S
C2510      C3517   1.395       .  A
C2510      H2518   1.084       .  S
C2519      C2520   1.408       .  A
C2519      C2524   1.408       .  A
C2520      C2521   1.397       .  A
C2520      H2533   1.083       .  S
C2521      C2522   1.399       .  A
C2521      H2534   1.084   1_655  S
C2522      C2523   1.401       .  A
C2522      C2525   1.441   1_655  S
C2523      C2524   1.401       .  A
C2523      H2535   1.083       .  S
C2524      H2536   1.083       .  S
C2526      C2527   1.441       .  S
C2527      C2528   1.400       .  A
C2527      C2532   1.401       .  A
C2528      C2529   1.400       .  A
C2528      H2537   1.083       .  S
C2529      C2530   1.406       .  A
C2529      H2538   1.083       .  S
C2530      C2531   1.404       .  A
C2531      C2532   1.398       .  A
C2531      H2539   1.083       .  S
C2532      H2540   1.084       .  S
C2541      C2542   1.408       .  A
C2541      C2546   1.407       .  A
C2542      C2543   1.400       .  A
C2542      H2555   1.083       .  S
C2543      C2544   1.400       .  A
C2543      H2556   1.083       .  S
C2544      C2545   1.399       .  A
C2544      C2547   1.439       .  S
C2545      C2546   1.397       .  A
C2545      H2557   1.084       .  S
C2546      H2558   1.083       .  S
C2547      C2548   1.206       .  T
C2548      C2549   1.439       .  S
C2549      C2550   1.400       .  A
C2549      C2554   1.401       .  A
C2550      C2551   1.396       .  A
C2550      H2559   1.084       .  S
C2551      C2552   1.402       .  A
C2551      H2560   1.084       .  S
C2552      C2553   1.404       .  A
C2553      C2554   1.400       .  A
C2553      H2561   1.083       .  S
C2554      H2562   1.083       .  S
C2563      C2564   1.406       .  A
C2563      C2568   1.403       .  A
C2564      C2565   1.400       .  A
C2564      H2577   1.083       .  S
C2565      C2566   1.401       .  A
C2565      H2578   1.083       .  S
C2566      C2567   1.400       .  A
C2566      C2569   1.442       .  S
C2567      C2568   1.398       .  A
C2567      H2579   1.083       .  S
C2568      H2580   1.083       .  S
C2569      C2570   1.207       .  T
C2570      C3579   1.442       .  S
C2571      C2572   1.400       .  A
C2571      C2576   1.401       .  A
C2571      C3578   1.441   1_545  S
C2572      C2573   1.399       .  A
C2572      H2581   1.083       .  S
C2573      C2574   1.405       .  A
C2573      H2582   1.083       .  S
C2574      C2575   1.404       .  A
C2575      C2576   1.399       .  A
C2575      H2583   1.083       .  S
C2576      H2584   1.083       .  S
C2585      C2586   1.402       .  A
C2585      C2590   1.403       .  A
C2586      C2587   1.398       .  A
C2586      H2599   1.083       .  S
C2587      C2588   1.401       .  A
C2587      H2600   1.083       .  S
C2588      C2589   1.399       .  A
C2588      C2591   1.436       .  S
C2589      C2590   1.396       .  A
C2589      H2601   1.083       .  S
C2590      H2602   1.083       .  S
C2592      C2593   1.437       .  S
C2593      C2594   1.400       .  A
C2593      C2598   1.399       .  A
C2594      C2595   1.398       .  A
C2594      H2603   1.083       .  S
C2595      C2596   1.404       .  A
C2595      H2604   1.083       .  S
C2596      C2597   1.406       .  A
C2597      C2598   1.396       .  A
C2597      H2605   1.083       .  S
C2598      H2606   1.084       .  S
C2607      C2608   1.404       .  A
C2607      C2612   1.403       .  A
C2608      C2609   1.397       .  A
C2608      H2621   1.083       .  S
C2609      C2610   1.400       .  A
C2609      H2622   1.084       .  S
C2610      C2611   1.400       .  A
C2610      C2613   1.438       .  S
C2611      C2612   1.398       .  A
C2611      H2623   1.083       .  S
C2612      H2624   1.083       .  S
C2613      C2614   1.205       .  T
C2614      C2615   1.438       .  S
C2615      C2616   1.400       .  A
C2615      C2620   1.400       .  A
C2616      C2617   1.398       .  A
C2616      H2625   1.083       .  S
C2617      C2618   1.406       .  A
C2617      H2626   1.083       .  S
C2618      C2619   1.403       .  A
C2619      C2620   1.397       .  A
C2619      H2627   1.083       .  S
C2620      H2628   1.083       .  S
C2629      C2630   1.402       .  A
C2629      C2634   1.405       .  A
C2630      C2631   1.397       .  A
C2630      H2643   1.083       .  S
C2631      C2632   1.400       .  A
C2631      H2644   1.083       .  S
C2632      C2633   1.401       .  A
C2632      C2635   1.440       .  S
C2633      C2634   1.400       .  A
C2633      H2645   1.083       .  S
C2634      H3654   1.083       .  S
C2635      C2636   1.206       .  T
C2636      C2637   1.440       .  S
C2637      C2638   1.400       .  A
C2637      C2642   1.399       .  A
C2638      C2639   1.399       .  A
C2638      H2647   1.083       .  S
C2639      C2640   1.408       .  A
C2639      H2648   1.083       .  S
C2640      C2641   1.408       .  A
C2641      C2642   1.398       .  A
C2641      H2649   1.083       .  S
C2642      H2650   1.084       .  S
H2646      C3642   1.083       .  S
C2651      C2652   1.408       .  A
C2651      C2656   1.409       .  A
C2652      C2653   1.397       .  A
C2652      H2665   1.083       .  S
C2653      C2654   1.399       .  A
C2653      H2666   1.084       .  S
C2654      C2655   1.401       .  A
C2654      C2657   1.441       .  S
C2655      C2656   1.401       .  A
C2655      H2667   1.083       .  S
C2656      H2668   1.083       .  S
C2657      C2658   1.207       .  T
C2658      C2659   1.441       .  S
C2659      C2660   1.400       .  A
C2659      C2664   1.402       .  A
C2660      C2661   1.398       .  A
C2660      H2669   1.083       .  S
C2661      C2662   1.404       .  A
C2661      H3678   1.083       .  S
C2663      H2671   1.083   1_455  S
C2664      H2672   1.083       .  S
H2670      C3669   1.083       .  S
C2673      C2674   1.408       .  A
C2673      C2678   1.406       .  A
C2674      C2675   1.402       .  A
C2674      H2687   1.083       .  S
C2675      C2676   1.401       .  A
C2675      H2688   1.083       .  S
C2676      C2677   1.397       .  A
C2676      C2679   1.438       .  S
C2677      C2678   1.393       .  A
C2677      H2689   1.084       .  S
C2678      H2690   1.083       .  S
C2679      C2680   1.205       .  T
C2680      C2681   1.438       .  S
C2681      C2686   1.399       .  A
C2682      C2683   1.397       .  A
C2682      H2691   1.084       .  S
C2683      H2692   1.083   1_455  S
C2684      C2685   1.406       .  A
C2685      C2686   1.398       .  A
C2685      H2693   1.083       .  S
C2686      H2694   1.083       .  S
C2695      C2696   1.405       .  A
C2695      C2700   1.408       .  A
C2696      C2697   1.397       .  A
C2696      H2709   1.081       .  S
C2697      C2698   1.399       .  A
C2697      H2710   1.084       .  S
C2698      C2699   1.400       .  A
C2698      C2701   1.440       .  S
C2699      C2700   1.400       .  A
C2699      H2711   1.083       .  S
C2700      H2712   1.082       .  S
C2701      C2702   1.206       .  T
C2702      C2703   1.440       .  S
C2703      C2704   1.401       .  A
C2703      C2708   1.398       .  A
C2704      C2705   1.402       .  A
C2704      H2713   1.083       .  S
C2705      C2706   1.408       .  A
C2705      H2714   1.083       .  S
C2706      C2707   1.408       .  A
C2707      C2708   1.395       .  A
C2707      H2715   1.083       .  S
C2708      H2716   1.084       .  S
C2717      C2718   1.407       .  A
C2717      C2722   1.405       .  A
C2718      C2719   1.400       .  A
C2718      H2731   1.083       .  S
C2719      C2720   1.400       .  A
C2719      H2732   1.083       .  S
C2720      C2721   1.399       .  A
C2720      C2723   1.438       .  S
C2721      C2722   1.395       .  A
C2721      H2733   1.084       .  S
C2722      H2734   1.083       .  S
C2723      C2724   1.205       .  T
C2724      C2725   1.438       .  S
C2725      C2726   1.399       .  A
C2725      C2730   1.399       .  A
C2726      C2727   1.396       .  A
C2726      H2735   1.084       .  S
C2727      C2728   1.407       .  A
C2727      H2736   1.083       .  S
C2728      C2729   1.409       .  A
C2729      C2730   1.399       .  A
C2729      H2737   1.083       .  S
C2730      H2738   1.083       .  S
C2739      C2740   1.408       .  A
C2739      C2744   1.407       .  A
C2740      C2741   1.400       .  A
C2740      H2753   1.083       .  S
C2741      C2742   1.400       .  A
C2741      H2754   1.083       .  S
C2742      C2743   1.399       .  A
C2742      C2745   1.439       .  S
C2743      C2744   1.396       .  A
C2743      H2755   1.084       .  S
C2744      H2756   1.083       .  S
C2745      C2746   1.206       .  T
C2746      C2747   1.439       .  S
C2747      C2748   1.401       .  A
C2747      C2752   1.401       .  A
C2748      C2749   1.396       .  A
C2748      H2757   1.084       .  S
C2749      C2750   1.400       .  A
C2749      H2758   1.082       .  S
C2750      C2751   1.404       .  A
C2751      C2752   1.400       .  A
C2751      H2759   1.083       .  S
C2752      H2760   1.083       .  S
C2761      C2762   1.407       .  A
C2761      C2766   1.404       .  A
C2762      C2763   1.398       .  A
C2762      H2775   1.082       .  S
C2763      C2764   1.399       .  A
C2763      H2776   1.083       .  S
C2764      C2765   1.401       .  A
C2764      C2767   1.441       .  S
C2765      C2766   1.400       .  A
C2765      H2777   1.083       .  S
C2766      H2778   1.083       .  S
C2767      C2768   1.207       .  T
C2768      C2769   1.442       .  S
C2769      C2770   1.400       .  A
C2769      C2774   1.398       .  A
C2770      C2771   1.400       .  A
C2770      H2779   1.083       .  S
C2771      C2772   1.409       .  A
C2771      H2780   1.082       .  S
C2772      C2773   1.406       .  A
C2773      C2774   1.397       .  A
C2773      H2781   1.077       .  S
C2774      H2782   1.084       .  S
C2783      C2784   1.404       .  A
C2783      C2788   1.407       .  A
C2784      C2785   1.401       .  A
C2784      H2797   1.083       .  S
C2785      C2786   1.402       .  A
C2785      H2798   1.083       .  S
C2786      C2787   1.401       .  A
C2786      C2789   1.446       .  S
C2787      C2788   1.400       .  A
C2787      H2799   1.083       .  S
C2788      H2800   1.083       .  S
C2789      C2790   1.210       .  T
C2790      C2791   1.446       .  S
C2791      C2792   1.401       .  A
C2791      C2796   1.402       .  A
C2792      C2793   1.400       .  A
C2792      H2801   1.083       .  S
C2793      C2794   1.407       .  A
C2793      H2802   1.083       .  S
C2794      C2795   1.405       .  A
C2795      C2796   1.401       .  A
C2795      H3811   1.083       .  S
C2796      H2804   1.083       .  S
H2803      C3803   1.083       .  S
C2805      C2806   1.403       .  A
C2805      C2810   1.405       .  A
C2806      C2807   1.399       .  A
C2806      H2819   1.083       .  S
C2807      C2808   1.401       .  A
C2807      H2820   1.083       .  S
C2808      C2809   1.401       .  A
C2808      C2811   1.441       .  S
C2809      C2810   1.399       .  A
C2809      H2821   1.083       .  S
C2811      C2812   1.207       .  T
C2812      C2813   1.441       .  S
C2813      C2814   1.400       .  A
C2813      C2818   1.401       .  A
C2814      C2815   1.398       .  A
C2814      H2823   1.083       .  S
C2815      C2816   1.402       .  A
C2815      H2824   1.078       .  S
C2816      C2817   1.405       .  A
C2817      C2818   1.399       .  A
C2817      H2825   1.083       .  S
C2818      H2826   1.083       .  S
C2827      C2828   1.406       .  A
C2827      C2832   1.408       .  A
C2828      C2829   1.401       .  A
C2828      H2841   1.083       .  S
C2829      C2830   1.402       .  A
C2829      H2842   1.083       .  S
C2830      C2831   1.397       .  A
C2830      C2833   1.437       .  S
C2831      C2832   1.394       .  A
C2831      H2843   1.084       .  S
C2832      H2844   1.083       .  S
C2833      C2834   1.205       .  T
C2834      C2835   1.437       .  S
C2835      C2836   1.401       .  A
C2835      C2840   1.399       .  A
C2836      C2837   1.399       .  A
C2836      H2845   1.083       .  S
C2837      C2838   1.404       .  A
C2837      H2846   1.083       .  S
C2838      C2839   1.400       .  A
C2839      C2840   1.396       .  A
C2839      H2847   1.080       .  S
C2840      H2848   1.083       .  S
C2849      C2850   1.405       .  A
C2849      C2854   1.403       .  A
C2850      C2851   1.399       .  A
C2850      H2863   1.083       .  S
C2851      C2852   1.400       .  A
C2851      H2864   1.083       .  S
C2852      C2853   1.401       .  A
C2852      C2855   1.441       .  S
C2853      C2854   1.399       .  A
C2853      H2865   1.083       .  S
C2854      H2866   1.083       .  S
C2855      C2856   1.207       .  T
C2856      C2857   1.440       .  S
C2857      C2858   1.397       .  A
C2857      C2862   1.402       .  A
C2858      C2859   1.395       .  A
C2858      H2867   1.084       .  S
C2859      C2860   1.408       .  A
C2859      H2868   1.083       .  S
C2860      C3869   1.407       .  A
C2861      C3868   1.407       .  A
C2861      C3870   1.403       .  A
C2861      H2869   1.083       .  S
C2862      C3869   1.402       .  A
C2862      H3878   1.083       .  S
H2870      C3870   1.083       .  S
C2871      C2872   1.405       .  A
C2871      C2876   1.407       .  A
C2872      C2873   1.396       .  A
C2872      H2885   1.079       .  S
C2873      C2874   1.398       .  A
C2873      H2886   1.084       .  S
C2874      C2875   1.400       .  A
C2874      C2877   1.438       .  S
C2875      C2876   1.399       .  A
C2875      H2887   1.083       .  S
C2876      H2888   1.083       .  S
C2877      C2878   1.205       .  T
C2878      C2879   1.439       .  S
C2879      C2880   1.400       .  A
C2879      C2884   1.398       .  A
C2880      C3889   1.399       .  A
C2880      H3897   1.083       .  S
C2881      C3888   1.400       .  A
C2881      C3890   1.408       .  A
C2881      H2890   1.083       .  S
C2882      C3058   1.483       .  S
C2882      C3889   1.408   1_565  A
C2882      C2883   1.409       .  A
C2883      C2884   1.397   1_565  A
C2883      H2891   1.083       .  S
C2884      H2892   1.084       .  S
H2889      C3888   1.083       .  S
C2893      C2894   1.408       .  A
C2893      C2898   1.408       .  A
C2894      C2895   1.396       .  A
C2894      H2907   1.083       .  S
C2895      C2896   1.398       .  A
C2895      H2908   1.084       .  S
C2896      C2897   1.399       .  A
C2896      C2899   1.436       .  S
C2897      C2898   1.397       .  A
C2897      H2909   1.084       .  S
C2898      H2910   1.083       .  S
C2899      C2900   1.204       .  T
C2900      C2901   1.436       .  S
C2901      C2902   1.398       .  A
C2901      C2906   1.399       .  A
C2902      C2903   1.396       .  A
C2902      H2911   1.084       .  S
C2903      C2904   1.407       .  A
C2903      H2912   1.083       .  S
C2904      C2905   1.408       .  A
C2905      C2906   1.398       .  A
C2905      H2913   1.083       .  S
C2906      H2914   1.083       .  S
C2915      C2916   1.407       .  A
C2915      C2920   1.409       .  A
C2916      C2917   1.393       .  A
C2917      C2918   1.397       .  A
C2917      H2930   1.084       .  S
C2918      C2919   1.400       .  A
C2918      C2921   1.436       .  S
C2919      C2920   1.401       .  A
C2919      H2931   1.083       .  S
C2920      H2932   1.083       .  S
C2921      C2922   1.204       .  T
C2922      C2923   1.437       .  S
C2923      C2924   1.399       .  A
C2923      C2928   1.398       .  A
C2924      C2925   1.399       .  A
C2924      H2933   1.083       .  S
C2925      C2926   1.408       .  A
C2925      H2934   1.083       .  S
C2926      C2927   1.408       .  A
C2927      C2928   1.395       .  A
C2927      H2935   1.083       .  S
C2928      H2936   1.084       .  S
C2937      C2938   1.408       .  A
C2937      C2942   1.409       .  A
C2938      C2939   1.397       .  A
C2938      H2951   1.083       .  S
C2939      C2940   1.399       .  A
C2939      H2952   1.084       .  S
C2940      C2941   1.399       .  A
C2940      C2943   1.439       .  S
C2941      C2942   1.400       .  A
C2941      H2953   1.083       .  S
C2942      H2954   1.083       .  S
C2943      C2944   1.206       .  T
C2944      C2945   1.439       .  S
C2945      C2946   1.400       .  A
C2945      C2950   1.398       .  A
C2946      C2947   1.400       .  A
C2946      H2955   1.083       .  S
C2947      C2948   1.408       .  A
C2947      H2956   1.083       .  S
C2948      C2949   1.408       .  A
C2949      C2950   1.397       .  A
C2949      H2957   1.083       .  S
C2950      H2958   1.084       .  S
C2959      C2960   1.403       .  A
C2959      C2964   1.404       .  A
C2960      C2961   1.394       .  A
C2960      H2973   1.083       .  S
C2961      C2962   1.397       .  A
C2961      H2974   1.084       .  S
C2962      C2963   1.401       .  A
C2962      C2965   1.433       .  S
C2963      C2964   1.398       .  A
C2963      H2975   1.083       .  S
C2964      H2976   1.083       .  S
C2965      C3974   1.202   1_545  T
C2966      C2967   1.434       .  S
C2966      C3973   1.202       .  T
C2967      C2968   1.397       .  A
C2967      C2972   1.400       .  A
C2968      C2969   1.393       .  A
C2968      H2977   1.084       .  S
C2969      C2970   1.407       .  A
C2969      H2978   1.083       .  S
C2970      C2971   1.408       .  A
C2971      C2972   1.399       .  A
C2971      H2979   1.083       .  S
C2972      H2980   1.083       .  S
C2981      C2982   1.408       .  A
C2981      C2986   1.408       .  A
C2982      C2983   1.403       .  A
C2982      H2995   1.083       .  S
C2983      C2984   1.402       .  A
C2983      H2996   1.083       .  S
C2984      C2985   1.397       .  A
C2985      C2986   1.395       .  A
C2986      H2998   1.083       .  S
C2987      C2988   1.207   1_455  T
C2988      C2989   1.442       .  S
C2989      C2990   1.401       .  A
C2989      C2994   1.400       .  A
C2990      C2991   1.399       .  A
C2990      H2999   1.083       .  S
C2991      C2992   1.403       .  A
C2991      H3000   1.083       .  S
C2992      C2993   1.406       .  A
C2993      C2994   1.399       .  A
C2993      H3001   1.083       .  S
C2994      H3002   1.083       .  S
C3003      C3004   1.402       .  A
C3003      C3008   1.405       .  A
C3004      C3005   1.396       .  A
C3004      H3017   1.083       .  S
C3005      C3006   1.399       .  A
C3005      H3018   1.084       .  S
C3006      C3007   1.402       .  A
C3006      C3009   1.439       .  S
C3007      C3008   1.400       .  A
C3007      H3019   1.083       .  S
C3008      H3020   1.083       .  S
C3009      C3010   1.206       .  T
C3010      C3011   1.439       .  S
C3011      C3012   1.398       .  A
C3011      C3016   1.400       .  A
C3012      C3013   1.398       .  A
C3012      H3021   1.083       .  S
C3013      C3014   1.409       .  A
C3013      H3022   1.083       .  S
C3014      C3015   1.407       .  A
C3015      C3016   1.399       .  A
C3015      H3023   1.083       .  S
C3016      H3024   1.084       .  S
O3025     Ni3031   1.926       .  S
O3025      C3046   1.269       .  A
O3026     Ni3049   1.898       .  S
O3026      C3035   1.265       .  A
O3027     Ni3031   1.919       .  S
O3027     Ni3049   1.910       .  S
O3027     Ni3043   1.906       .  S
O3027      H3050   0.968       .  S
C3028      O3045   1.269       .  A
C3028      O3037   1.274       .  A
C3028      C3978   1.476       .  S
O3029     Ni3048   1.933       .  S
O3029      C3035   1.273       .  A
O3030     Ni3048   1.909       .  S
O3030      C3032   1.271       .  A
Ni3031     O3034   1.921       .  S
Ni3031     O3036   1.901       .  S
C3032      O3042   1.274       .  A
C3032      C4022   1.484       .  S
O3033     Ni3049   1.904       .  S
O3033      C3039   1.271       .  A
O3034      C3039   1.274       .  A
C3035      C3945   1.483       .  S
O3036      C3038   1.267       .  A
O3037     Ni3048   1.928       .  S
C3038      O3044   1.270       .  A
C3038      C3901   1.480       .  S
C3039      C3934   1.479       .  S
H3040      O3041   0.966       .  S
O3041     Ni3049   1.910       .  S
O3041     Ni3043   1.915       .  S
O3041     Ni3048   1.919       .  S
O3042     Ni3043   1.934       .  S
Ni3043     O3047   1.913       .  S
Ni3043     O3045   1.899       .  S
O3044     Ni3049   1.923       .  S
C3046      O3047   1.267       .  A
C3046      C3989   1.484       .  S
O3051     Ni3057   1.918       .  S
O3051      C3072   1.270       .  A
O3052     Ni3075   1.896       .  S
O3052      C3061   1.264       .  A
O3053     Ni3057   1.922   1_455  S
C3054      O3071   1.268       .  A
C3054      O3063   1.271       .  A
C3054      C3835   1.479       .  S
O3055     Ni3074   1.925       .  S
O3055      C3061   1.270       .  A
O3056     Ni3074   1.900       .  S
O3056      C3058   1.271       .  A
O3059      C3065   1.268       .  A
O3060      C3065   1.272       .  A
C3061      C3912   1.478       .  S
O3062      C3064   1.270       .  A
C3064      O3070   1.273       .  A
C3064      C3956   1.482       .  S
C3065      C3923   1.480       .  S
H3066      O3067   0.966       .  S
O3067     Ni3069   1.912       .  S
Ni3069     O3071   1.910       .  S
C3072      O3073   1.269       .  A
C3072      C3868   1.480       .  S
C3077      H3078   1.110       .  S
C3077      C3083   1.531       .  S
C3077      C3082   1.541       .  S
C3077      C3081   1.537       .  S
C3079      H3080   1.110       .  S
C3079      C3085   1.543       .  S
C3079      C3084   1.543       .  S
C3079      C3086   1.536       .  S
C3081      C3084   1.379       .  D
C3081      C3703   1.491       .  S
C3082      C3085   1.383       .  D
C3082      C3725   1.491       .  S
C3083      C3086   1.366       .  D
C3083      C3758   1.478       .  S
C3084      C3791   1.489       .  S
C3085      C3780   1.492       .  S
C3086      C3824   1.477       .  S
C3087      H3088   1.111       .  S
C3087      C3093   1.543   1_655  S
C3087      C3092   1.540       .  S
C3089      H3090   1.111       .  S
C3089      C3095   1.532       .  S
C3089      C3096   1.532   1_655  S
C3091      C3094   1.373       .  D
C3092      C3095   1.374       .  D
C3092      C3802   1.486       .  S
C3093      C3096   1.377       .  D
C3095      C3637   1.479       .  S
C3097      H3098   1.111       .  S
C3097      C3103   1.538       .  S
C3097      C3102   1.542       .  S
C3097      C3101   1.536       .  S
C3099      H3100   1.111       .  S
C3099      C3105   1.530       .  S
C3099      C3104   1.534       .  S
C3099      C3106   1.529       .  S
C3101      C3104   1.375       .  D
C3101      C3571   1.485       .  S
C3102      C3105   1.377       .  D
C3102      C3604   1.484       .  S
C3103      C3106   1.373       .  D
C3103      C3615   1.479       .  S
C3104      C3505   1.478       .  S
C3105      C3538   1.485       .  S
C3106      C3560   1.478       .  S
C3107      H3108   1.111       .  S
C3107      C3113   1.533       .  S
C3107      C3112   1.535       .  S
C3107      C3111   1.531       .  S
C3109      H3110   1.111       .  S
C3109      C3115   1.537       .  S
C3109      C3114   1.539       .  S
C3109      C3116   1.534       .  S
C3111      C3114   1.375       .  D
C3111      C4011   1.480       .  S
C3112      C3115   1.376       .  D
C3112      C3967   1.479       .  S
C3113      C3116   1.373       .  D
C3113      C4000   1.484       .  S
C3114      C3626   1.481       .  S
C3115      C3582   1.484       .  S
C3116      C3593   1.477       .  S
O3117     Ni3123   1.923       .  S
O3117      C3138   1.269       .  A
O3118     Ni3141   1.907       .  S
O3118      C3127   1.268       .  A
O3119     Ni3123   1.907       .  S
O3119     Ni3141   1.905       .  S
O3119     Ni3135   1.911       .  S
O3119      H3142   0.966       .  S
C3120      O3137   1.275       .  A
C3120      O3129   1.278       .  A
C3120      C3472   1.480       .  S
O3121     Ni3140   1.936       .  S
O3121      C3127   1.274       .  A
O3122     Ni3140   1.911       .  S
O3122      C3124   1.270       .  A
Ni3123     O3126   1.917       .  S
Ni3123     O3128   1.905       .  S
C3124      O3134   1.270       .  A
C3124      C3439   1.483       .  S
O3125     Ni3141   1.920       .  S
O3125      C3131   1.277       .  A
O3126      C3131   1.276       .  A
C3127      C3527   1.483       .  S
O3128      C3130   1.269       .  A
O3129     Ni3140   1.930       .  S
C3130      O3136   1.272       .  A
C3130      C3549   1.481       .  S
C3131      C3516   1.480       .  S
H3132      O3133   0.966       .  S
O3133     Ni3141   1.913       .  S
O3133     Ni3135   1.908       .  S
O3133     Ni3140   1.913       .  S
O3134     Ni3135   1.920       .  S
Ni3135     O3139   1.913       .  S
Ni3135     O3137   1.908       .  S
O3136     Ni3141   1.925       .  S
C3138      O3139   1.268       .  A
C3138      C3483   1.482       .  S
O3143     Ni3149   1.932       .  S
O3143      C3164   1.271       .  A
O3144      C3153   1.266       .  A
O3145     Ni3149   1.920       .  S
O3145     Ni3161   1.904       .  S
O3145      H3168   0.966       .  S
C3146      O3163   1.269       .  A
C3146      O3155   1.274       .  A
C3146      C3747   1.478       .  S
O3147     Ni3166   1.934       .  S
O3147      C3153   1.273       .  A
O3148      C3150   1.272       .  A
Ni3149     O3152   1.922       .  S
Ni3149     O3154   1.907       .  S
C3150      O3160   1.278       .  A
C3150      C3736   1.484       .  S
O3151      C3157   1.273       .  A
O3152      C3157   1.275       .  A
C3153      C3494   1.481       .  S
O3154      C3156   1.269       .  A
O3155     Ni3166   1.938       .  S
C3157      C3461   1.481       .  S
H3158      O3159   0.966       .  S
O3159     Ni3166   1.922       .  S
Ni3161     O3165   1.908       .  S
C3164      O3165   1.267       .  A
C3164      C3714   1.485       .  S
C3169      H3170   1.111       .  S
C3169      C3175   1.538       .  S
C3169      C3174   1.534       .  S
C3169      C3173   1.533       .  S
C3171      H3172   1.111       .  S
C3171      C3177   1.537       .  S
C3171      C3176   1.534       .  S
C3171      C3178   1.543       .  S
C3173      C3176   1.371       .  D
C3173      C3846   1.477       .  S
C3174      C3177   1.372       .  D
C3174      C3857   1.480       .  S
C3175      C3178   1.381       .  D
C3175      C3879   1.489       .  S
C3176      C3395   1.478       .  S
C3177      C3373   1.482       .  S
C3178      C3428   1.492       .  S
C3179      H3180   1.111       .  S
C3179      C3185   1.537   1_565  S
C3181      H3182   1.111       .  S
C3181      C3188   1.534   1_565  S
C3183      C3186   1.375       .  D
C3183      C3406   1.480       .  S
C3184      C3187   1.377       .  D
C3185      C3188   1.374       .  D
C3185      C3417   1.485       .  S
C3186      C3307   1.480       .  S
C3188      C3351   1.480       .  S
O3189     Ni3195   1.931       .  S
O3189      C3210   1.271       .  A
O3190     Ni3213   1.903       .  S
O3190      C3199   1.267       .  A
O3191     Ni3195   1.915       .  S
O3191     Ni3213   1.911       .  S
O3191     Ni3207   1.911       .  S
O3191      H3214   0.966       .  S
C3192      O3209   1.275       .  A
C3192      O3201   1.278       .  A
C3192      C3263   1.483       .  S
O3193     Ni3212   1.934       .  S
O3193      C3199   1.273       .  A
O3194     Ni3212   1.911       .  S
O3194      C3196   1.269       .  A
Ni3195     O3198   1.917       .  S
Ni3195     O3200   1.906       .  S
C3196      O3206   1.269       .  A
C3196      C3252   1.483       .  S
O3197     Ni3213   1.917       .  S
O3197      C3203   1.274       .  A
O3198      C3203   1.275       .  A
C3199      C3648   1.481       .  S
O3200      C3202   1.270       .  A
O3201     Ni3212   1.927       .  S
C3202      O3208   1.272       .  A
C3202      C3659   1.483       .  S
C3203      C3681   1.482       .  S
H3204      O3205   0.966       .  S
O3205     Ni3213   1.909       .  S
O3205     Ni3207   1.905       .  S
O3205     Ni3212   1.915       .  S
O3206     Ni3207   1.918       .  S
Ni3207     O3211   1.903       .  S
Ni3207     O3209   1.911       .  S
O3208     Ni3213   1.926       .  S
C3210      O3211   1.266       .  A
C3210      C3296   1.483       .  S
O3215     Ni3221   1.931       .  S
O3215      C3236   1.271       .  A
O3216     Ni3239   1.909       .  S
O3216      C3225   1.268       .  A
O3217     Ni3221   1.915       .  S
O3217     Ni3239   1.907       .  S
O3217     Ni3233   1.908       .  S
O3217      H3240   0.966       .  S
C3218      O3235   1.273       .  A
C3218      O3227   1.276       .  A
C3218      C3318   1.484       .  S
O3219     Ni3238   1.930       .  S
O3219      C3225   1.272       .  A
O3220     Ni3238   1.908       .  S
O3220      C3222   1.269       .  A
Ni3221     O3224   1.920       .  S
Ni3221     O3226   1.912       .  S
C3222      O3232   1.273       .  A
C3222      C3329   1.486       .  S
O3223     Ni3239   1.918       .  S
O3223      C3229   1.277       .  A
O3224      C3229   1.276       .  A
C3225      C3285   1.485       .  S
O3226      C3228   1.269       .  A
O3227     Ni3238   1.927       .  S
C3228      O3234   1.270       .  A
C3228      C3241   1.484       .  S
C3229      C3274   1.480       .  S
H3230      O3231   0.966       .  S
O3231     Ni3239   1.912       .  S
O3231     Ni3233   1.912       .  S
O3231     Ni3238   1.914       .  S
O3232     Ni3233   1.934       .  S
Ni3233     O3237   1.907       .  S
Ni3233     O3235   1.912       .  S
O3234     Ni3239   1.919       .  S
C3236      O3237   1.267       .  A
C3236      C3362   1.481       .  S
C3241      C3242   1.409       .  A
C3241      C3246   1.408       .  A
C3242      C3243   1.400       .  A
C3242      H3255   1.083       .  S
C3243      C3244   1.400       .  A
C3243      H3256   1.084       .  S
C3244      C3245   1.398       .  A
C3244      C3247   1.439   1_554  S
C3245      C3246   1.396       .  A
C3245      H3257   1.084   1_554  S
C3246      H3258   1.083       .  S
C3247      C3248   1.205       .  T
C3248      C3249   1.439       .  S
C3249      C3250   1.400       .  A
C3249      C3254   1.398       .  A
C3250      C3251   1.399       .  A
C3250      H3259   1.083       .  S
C3251      C3252   1.408       .  A
C3251      H3260   1.083       .  S
C3252      C3253   1.409       .  A
C3253      C3254   1.397       .  A
C3253      H3261   1.083       .  S
C3254      H3262   1.084       .  S
C3263      C3264   1.409       .  A
C3263      C3268   1.408       .  A
C3264      C3265   1.400       .  A
C3264      H3277   1.083       .  S
C3265      C3266   1.400       .  A
C3265      H3278   1.083       .  S
C3266      C3267   1.398       .  A
C3266      C3269   1.438       .  S
C3267      C3268   1.396       .  A
C3267      H3279   1.084       .  S
C3268      H3280   1.083       .  S
C3269      C3270   1.205       .  T
C3271      C3272   1.400       .  A
C3271      C3276   1.397       .  A
C3272      C3273   1.399       .  A
C3272      H3281   1.084   1_554  S
C3273      C3274   1.407       .  A
C3273      H3282   1.083       .  S
C3274      C3275   1.408       .  A
C3275      C3276   1.396       .  A
C3275      H3283   1.083       .  S
C3276      H3284   1.084       .  S
C3285      C3286   1.409       .  A
C3285      C3290   1.408       .  A
C3286      C3287   1.397       .  A
C3286      H3299   1.083       .  S
C3287      C3288   1.398   1_554  A
C3287      H3300   1.084       .  S
C3288      C3289   1.401       .  A
C3288      C3291   1.441       .  S
C3289      C3290   1.402   1_556  A
C3289      H3301   1.083       .  S
C3290      H3302   1.083       .  S
C3292      C3293   1.441       .  S
C3293      C3294   1.399       .  A
C3293      C3298   1.400       .  A
C3294      C3295   1.399       .  A
C3294      H3303   1.083       .  S
C3295      C3296   1.408       .  A
C3295      H3304   1.083       .  S
C3296      C3297   1.408       .  A
C3297      C3298   1.399       .  A
C3297      H3305   1.083       .  S
C3298      H3306   1.083       .  S
C3307      C3308   1.404       .  A
C3307      C3312   1.404       .  A
C3308      C3309   1.399       .  A
C3308      H3321   1.083       .  S
C3309      C3310   1.401       .  A
C3309      H3322   1.083       .  S
C3310      C3311   1.400       .  A
C3310      C3313   1.440       .  S
C3311      C3312   1.398       .  A
C3311      H3323   1.083       .  S
C3312      H3324   1.084       .  S
C3313      C3314   1.206       .  T
C3314      C3315   1.440       .  S
C3315      C3316   1.397       .  A
C3315      C3320   1.401       .  A
C3316      C3317   1.395       .  A
C3316      H3325   1.084       .  S
C3317      C3318   1.409       .  A
C3317      H3326   1.083       .  S
C3318      C3319   1.408       .  A
C3319      C3320   1.402       .  A
C3319      H3327   1.083       .  S
C3320      H3328   1.083       .  S
C3329      C3330   1.408       .  A
C3329      C3334   1.408       .  A
C3330      C3331   1.400       .  A
C3330      H3343   1.083       .  S
C3331      C3332   1.400       .  A
C3331      H3344   1.084       .  S
C3332      C3333   1.400       .  A
C3332      C3335   1.445       .  S
C3333      C3334   1.401       .  A
C3333      H3345   1.083       .  S
C3334      H3346   1.083       .  S
C3335      C3336   1.209       .  T
C3336      C3337   1.445       .  S
C3337      C3338   1.402       .  A
C3337      C3342   1.400       .  A
C3338      C3339   1.402       .  A
C3338      H3347   1.083       .  S
C3339      C3340   1.407       .  A
C3340      C3341   1.405       .  A
C3341      C3342   1.398       .  A
C3342      H3350   1.083       .  S
C3351      C3352   1.403       .  A
C3352      C3353   1.396       .  A
C3352      H3365   1.083   1_545  S
C3353      H3366   1.083       .  S
C3354      C3355   1.401       .  A
C3354      C3357   1.439       .  S
C3355      C3356   1.400       .  A
C3355      H3367   1.083       .  S
C3356      H3368   1.083       .  S
C3357      C3358   1.206       .  T
C3358      C3359   1.440       .  S
C3359      C3360   1.399       .  A
C3359      C3364   1.400       .  A
C3360      C3361   1.397       .  A
C3360      H3369   1.084       .  S
C3361      C3362   1.407       .  A
C3361      H3370   1.083       .  S
C3362      C3363   1.408       .  A
C3363      C3364   1.400       .  A
C3363      H3371   1.083       .  S
C3364      H3372   1.083       .  S
C3373      C3374   1.401       .  A
C3373      C3378   1.406       .  A
C3374      C3375   1.398       .  A
C3374      H3387   1.080       .  S
C3375      C3376   1.400       .  A
C3375      H3388   1.083       .  S
C3376      C3377   1.400       .  A
C3376      C3379   1.440       .  S
C3377      C3378   1.399       .  A
C3377      H3389   1.083       .  S
C3378      H3390   1.083       .  S
C3379      C3380   1.206       .  T
C3380      C3381   1.440       .  S
C3381      C3382   1.401       .  A
C3381      C3386   1.400       .  A
C3382      C3383   1.399       .  A
C3382      H3391   1.084       .  S
C3383      C3384   1.404       .  A
C3384      C3385   1.404       .  A
C3385      C3386   1.398       .  A
C3385      H3393   1.083       .  S
C3386      H3394   1.083       .  S
C3395      C3396   1.403       .  A
C3395      C3400   1.404       .  A
C3396      C3397   1.398       .  A
C3396      H3409   1.083       .  S
C3397      C3398   1.400       .  A
C3397      H3410   1.083       .  S
C3398      C3399   1.399       .  A
C3398      C3401   1.435       .  S
C3399      C3400   1.395       .  A
C3399      H3411   1.084       .  S
C3400      H3412   1.083       .  S
C3401      C3402   1.203       .  T
C3402      C3403   1.435       .  S
C3403      C3404   1.399       .  A
C3403      C3408   1.400       .  A
C3404      C3405   1.396       .  A
C3404      H3413   1.084       .  S
C3405      C3406   1.405       .  A
C3405      H3414   1.083       .  S
C3406      C3407   1.403       .  A
C3407      C3408   1.397       .  A
C3408      H3416   1.083       .  S
C3417      C3418   1.405       .  A
C3418      C3419   1.399       .  A
C3418      H3431   1.083   1_545  S
C3419      H3432   1.083       .  S
C3420      C3421   1.402       .  A
C3420      C3423   1.445       .  S
C3421      C3422   1.402       .  A
C3421      H3433   1.083       .  S
C3422      H3434   1.083       .  S
C3423      C3424   1.209       .  T
C3424      C3425   1.444       .  S
C3425      C3426   1.400       .  A
C3425      C3430   1.400       .  A
C3426      C3427   1.400       .  A
C3426      H3435   1.083       .  S
C3427      C3428   1.408       .  A
C3427      H3436   1.083       .  S
C3428      C3429   1.405       .  A
C3429      C3430   1.400       .  A
C3429      H3437   1.079       .  S
C3430      H3438   1.083       .  S
C3439      C3440   1.408       .  A
C3439      C3444   1.409       .  A
C3440      C3441   1.399       .  A
C3440      H3453   1.083       .  S
C3441      C3442   1.400       .  A
C3441      H3454   1.083       .  S
C3442      C3443   1.399       .  A
C3442      C3445   1.440       .  S
C3443      C3444   1.398       .  A
C3443      H3455   1.084       .  S
C3444      H3456   1.083       .  S
C3445      C3446   1.206       .  T
C3446      C3447   1.440       .  S
C3447      C3448   1.400       .  A
C3447      C3452   1.399       .  A
C3448      C3449   1.399       .  A
C3448      H3457   1.084       .  S
C3449      C3450   1.409       .  A
C3449      H3458   1.083       .  S
C3451      H3459   1.083       .  S
C3461      C3462   1.408       .  A
C3461      C3466   1.407       .  A
C3462      C3463   1.396       .  A
C3462      H3475   1.083       .  S
C3463      C3464   1.398       .  A
C3463      H3476   1.084       .  S
C3464      C3465   1.400       .  A
C3464      C3467   1.437       .  S
C3465      C3466   1.399       .  A
C3465      H3477   1.083       .  S
C3466      H3478   1.083       .  S
C3467      C3468   1.204       .  T
C3468      C3469   1.437       .  S
C3469      C3470   1.399       .  A
C3469      C3474   1.399       .  A
C3470      C3471   1.398       .  A
C3470      H3479   1.084       .  S
C3471      C3472   1.408       .  A
C3471      H3480   1.083       .  S
C3472      C3473   1.407       .  A
C3473      C3474   1.397       .  A
C3473      H3481   1.083       .  S
C3474      H3482   1.084       .  S
C3483      C3484   1.407       .  A
C3483      C3488   1.408       .  A
C3484      C3485   1.401       .  A
C3484      H3497   1.083       .  S
C3485      C3486   1.401       .  A
C3485      H3498   1.083       .  S
C3486      C3487   1.398       .  A
C3486      C3489   1.441       .  S
C3487      C3488   1.397       .  A
C3487      H3499   1.084       .  S
C3488      H3500   1.083       .  S
C3489      C3490   1.207       .  T
C3490      C3491   1.441       .  S
C3491      C3492   1.401       .  A
C3491      C3496   1.399       .  A
C3492      C3493   1.400       .  A
C3492      H3501   1.083       .  S
C3493      C3494   1.408       .  A
C3493      H3502   1.083       .  S
C3494      C3495   1.407       .  A
C3495      C3496   1.398       .  A
C3496      H3504   1.084       .  S
C3505      C3506   1.403       .  A
C3505      C3510   1.404       .  A
C3506      C3507   1.396       .  A
C3506      H3519   1.083       .  S
C3507      C3508   1.399       .  A
C3507      H3520   1.083       .  S
C3508      C3509   1.400       .  A
C3508      C3511   1.436       .  S
C3509      C3510   1.397       .  A
C3509      H3521   1.083       .  S
C3510      H3522   1.083       .  S
C3511      C3512   1.204       .  T
C3512      C3513   1.436       .  S
C3513      C3518   1.397       .  A
C3514      C3515   1.400       .  A
C3514      H3523   1.083       .  S
C3515      C3516   1.407       .  A
C3515      H3524   1.083       .  S
C3516      C3517   1.408       .  A
C3517      H3525   1.083       .  S
C3518      H3526   1.084       .  S
C3527      C3528   1.408       .  A
C3527      C3532   1.408       .  A
C3528      C3529   1.397       .  A
C3528      H3541   1.083       .  S
C3529      C3530   1.399       .  A
C3529      H3542   1.084   1_655  S
C3530      C3531   1.401       .  A
C3530      C3533   1.442   1_655  S
C3531      C3532   1.402       .  A
C3531      H3543   1.083       .  S
C3532      H3544   1.083       .  S
C3534      C3535   1.442       .  S
C3535      C3536   1.401       .  A
C3535      C3540   1.401       .  A
C3536      C3537   1.400       .  A
C3536      H3545   1.083       .  S
C3537      C3538   1.406       .  A
C3537      H3546   1.083       .  S
C3538      C3539   1.404       .  A
C3539      C3540   1.398       .  A
C3539      H3547   1.083       .  S
C3540      H3548   1.084       .  S
C3549      C3550   1.408       .  A
C3549      C3554   1.408       .  A
C3550      C3551   1.399       .  A
C3550      H3563   1.083       .  S
C3551      C3552   1.399       .  A
C3551      H3564   1.083       .  S
C3552      C3553   1.399       .  A
C3552      C3555   1.438       .  S
C3553      C3554   1.396       .  A
C3553      H3565   1.084       .  S
C3554      H3566   1.083       .  S
C3555      C3556   1.205       .  T
C3556      C3557   1.437       .  S
C3557      C3558   1.399       .  A
C3557      C3562   1.401       .  A
C3558      C3559   1.395       .  A
C3558      H3567   1.084       .  S
C3559      C3560   1.402       .  A
C3559      H3568   1.084       .  S
C3560      C3561   1.404       .  A
C3561      C3562   1.399       .  A
C3561      H3569   1.083       .  S
C3562      H3570   1.083       .  S
C3571      C3572   1.406       .  A
C3571      C3576   1.403       .  A
C3572      C3573   1.399       .  A
C3572      H3585   1.083       .  S
C3573      C3574   1.400       .  A
C3573      H3586   1.083       .  S
C3574      C3575   1.401       .  A
C3574      C3577   1.441       .  S
C3575      C3576   1.399       .  A
C3575      H3587   1.083       .  S
C3576      H3588   1.083       .  S
C3577      C3578   1.207       .  T
C3579      C3580   1.401       .  A
C3579      C3584   1.401       .  A
C3580      C3581   1.399       .  A
C3580      H3589   1.083       .  S
C3581      C3582   1.406       .  A
C3581      H3590   1.083       .  S
C3582      C3583   1.404       .  A
C3583      C3584   1.399       .  A
C3583      H3591   1.083       .  S
C3584      H3592   1.083       .  S
C3593      C3594   1.403       .  A
C3593      C3598   1.404       .  A
C3594      C3595   1.399       .  A
C3594      H3607   1.083       .  S
C3595      C3596   1.401       .  A
C3595      H3608   1.083       .  S
C3596      C3597   1.399       .  A
C3596      C3599   1.438       .  S
C3597      C3598   1.396       .  A
C3597      H3609   1.083       .  S
C3598      H3610   1.083       .  S
C3600      C3601   1.438       .  S
C3601      C3602   1.401       .  A
C3601      C3606   1.398       .  A
C3602      C3603   1.399       .  A
C3602      H3611   1.083       .  S
C3603      C3604   1.404       .  A
C3603      H3612   1.083       .  S
C3604      C3605   1.406       .  A
C3605      C3606   1.396       .  A
C3605      H3613   1.083       .  S
C3606      H3614   1.084       .  S
C3615      C3616   1.404       .  A
C3615      C3620   1.404       .  A
C3616      C3617   1.397       .  A
C3616      H3629   1.083       .  S
C3617      C3618   1.400       .  A
C3617      H3630   1.083       .  S
C3618      C3619   1.401       .  A
C3618      C3621   1.438       .  S
C3619      C3620   1.399       .  A
C3619      H3631   1.083       .  S
C3620      H3632   1.083       .  S
C3621      C3622   1.205       .  T
C3622      C3623   1.438       .  S
C3623      C3624   1.400       .  A
C3623      C3628   1.400       .  A
C3624      C3625   1.398       .  A
C3624      H3633   1.083       .  S
C3625      C3626   1.406       .  A
C3625      H3634   1.083       .  S
C3626      C3627   1.403       .  A
C3627      C3628   1.397       .  A
C3627      H3635   1.083       .  S
C3628      H3636   1.083       .  S
C3637      C3638   1.402       .  A
C3637      C3642   1.405       .  A
C3638      C3639   1.396       .  A
C3638      H3651   1.083       .  S
C3639      C3640   1.400       .  A
C3639      H3652   1.083       .  S
C3640      C3641   1.402       .  A
C3640      C3643   1.439       .  S
C3641      C3642   1.400       .  A
C3641      H3653   1.083       .  S
C3643      C3644   1.206       .  T
C3644      C3645   1.439       .  S
C3645      C3646   1.399       .  A
C3645      C3650   1.399       .  A
C3646      C3647   1.399       .  A
C3646      H3655   1.083       .  S
C3647      C3648   1.408       .  A
C3647      H3656   1.083       .  S
C3648      C3649   1.408       .  A
C3649      C3650   1.398       .  A
C3649      H3657   1.083       .  S
C3650      H3658   1.084       .  S
C3659      C3660   1.408       .  A
C3659      C3664   1.409       .  A
C3660      C3661   1.396       .  A
C3660      H3673   1.083       .  S
C3661      C3662   1.398       .  A
C3661      H3674   1.084       .  S
C3662      C3663   1.400       .  A
C3662      C3665   1.440       .  S
C3663      C3664   1.401       .  A
C3663      H3675   1.083       .  S
C3664      H3676   1.083       .  S
C3665      C3666   1.206       .  T
C3666      C3667   1.440       .  S
C3667      C3668   1.399       .  A
C3667      C3672   1.401       .  A
C3668      C3669   1.398       .  A
C3668      H3677   1.083       .  S
C3669      C3670   1.405       .  A
C3671      H3679   1.083       .  S
C3672      H3680   1.083       .  S
C3681      C3682   1.409       .  A
C3681      C3686   1.408       .  A
C3682      C3683   1.402       .  A
C3682      H3695   1.083       .  S
C3683      C3684   1.401       .  A
C3683      H3696   1.083       .  S
C3684      C3685   1.396       .  A
C3684      C3687   1.437       .  S
C3685      C3686   1.392       .  A
C3685      H3697   1.084       .  S
C3686      H3698   1.083       .  S
C3687      C3688   1.204       .  T
C3688      C3689   1.437       .  S
C3689      C3694   1.399       .  A
C3690      C3691   1.397       .  A
C3690      H3699   1.084       .  S
C3691      H3700   1.083   1_455  S
C3692      C3693   1.406       .  A
C3693      C3694   1.398       .  A
C3693      H3701   1.083       .  S
C3694      H3702   1.083       .  S
C3703      C3704   1.405       .  A
C3703      C3708   1.408       .  A
C3704      C3705   1.397       .  A
C3704      H3717   1.079       .  S
C3705      C3706   1.399       .  A
C3705      H3718   1.084       .  S
C3706      C3707   1.401       .  A
C3706      C3709   1.443       .  S
C3707      C3708   1.402       .  A
C3707      H3719   1.083       .  S
C3708      H3720   1.082       .  S
C3709      C3710   1.208       .  T
C3710      C3711   1.443       .  S
C3711      C3712   1.401       .  A
C3711      C3716   1.399       .  A
C3712      C3713   1.402       .  A
C3712      H3721   1.083       .  S
C3713      C3714   1.408       .  A
C3713      H3722   1.083       .  S
C3714      C3715   1.408       .  A
C3715      C3716   1.398       .  A
C3715      H3723   1.083       .  S
C3716      H3724   1.084       .  S
C3725      C3726   1.408       .  A
C3725      C3730   1.406       .  A
C3726      C3727   1.402       .  A
C3726      H3739   1.082       .  S
C3727      C3728   1.401       .  A
C3727      H3740   1.083       .  S
C3728      C3729   1.399       .  A
C3728      C3731   1.443       .  S
C3729      C3730   1.397       .  A
C3729      H3741   1.084       .  S
C3730      H3742   1.083       .  S
C3731      C3732   1.208       .  T
C3732      C3733   1.443       .  S
C3733      C3734   1.399       .  A
C3733      C3738   1.401       .  A
C3734      C3735   1.397       .  A
C3734      H3743   1.084       .  S
C3735      C3736   1.407       .  A
C3735      H3744   1.083       .  S
C3736      C3737   1.409       .  A
C3737      C3738   1.402       .  A
C3737      H3745   1.083       .  S
C3738      H3746   1.083       .  S
C3747      C3748   1.407       .  A
C3747      C3752   1.406       .  A
C3748      C3749   1.400       .  A
C3748      H3761   1.083       .  S
C3749      C3750   1.401       .  A
C3749      H3762   1.083       .  S
C3750      C3751   1.399       .  A
C3750      C3753   1.440       .  S
C3751      C3752   1.397       .  A
C3751      H3763   1.084       .  S
C3752      H3764   1.083       .  S
C3753      C3754   1.206       .  T
C3754      C3755   1.440       .  S
C3755      C3756   1.400       .  A
C3755      C3760   1.402       .  A
C3756      C3757   1.396       .  A
C3756      H3765   1.084       .  S
C3757      C3758   1.401       .  A
C3757      H3766   1.080       .  S
C3758      C3759   1.404       .  A
C3759      C3760   1.400       .  A
C3759      H3767   1.083       .  S
C3760      H3768   1.083       .  S
C3769      C3770   1.407       .  A
C3769      C3774   1.404       .  A
C3770      C3771   1.399       .  A
C3770      H3783   1.083       .  S
C3771      C3772   1.400       .  A
C3771      H3784   1.083       .  S
C3772      C3773   1.402       .  A
C3772      C3775   1.444       .  S
C3773      C3774   1.400       .  A
C3773      H3785   1.083       .  S
C3774      H3786   1.083       .  S
C3775      C3776   1.208       .  T
C3776      C3777   1.444       .  S
C3777      C3778   1.401       .  A
C3777      C3782   1.399       .  A
C3778      C3779   1.401       .  A
C3778      H3787   1.083       .  S
C3779      C3780   1.407       .  A
C3779      H3788   1.082       .  S
C3780      C3781   1.406       .  A
C3781      C3782   1.398       .  A
C3781      H3789   1.080       .  S
C3782      H3790   1.084       .  S
C3791      C3792   1.405       .  A
C3791      C3796   1.407       .  A
C3792      C3793   1.401       .  A
C3792      H3805   1.083       .  S
C3793      C3794   1.402       .  A
C3793      H3806   1.083       .  S
C3794      C3795   1.401       .  A
C3794      C3797   1.445       .  S
C3795      C3796   1.400       .  A
C3795      H3807   1.083       .  S
C3796      H3808   1.083       .  S
C3797      C3798   1.209       .  T
C3798      C3799   1.445       .  S
C3799      C3800   1.401       .  A
C3799      C3804   1.402       .  A
C3800      C3801   1.399       .  A
C3800      H3809   1.083       .  S
C3801      C3802   1.406       .  A
C3801      H3810   1.083       .  S
C3802      C3803   1.404       .  A
C3803      C3804   1.401       .  A
C3804      H3812   1.083       .  S
C3813      C3814   1.403       .  A
C3813      C3818   1.406       .  A
C3814      C3815   1.398       .  A
C3814      H3827   1.083       .  S
C3815      C3816   1.401       .  A
C3815      H3828   1.083       .  S
C3816      C3817   1.400       .  A
C3816      C3819   1.440       .  S
C3817      C3818   1.398       .  A
C3817      H3829   1.083       .  S
C3819      C3820   1.206       .  T
C3820      C3821   1.440       .  S
C3821      C3822   1.401       .  A
C3821      C3826   1.401       .  A
C3822      C3823   1.398       .  A
C3822      H3831   1.083       .  S
C3823      C3824   1.402       .  A
C3823      H3832   1.081       .  S
C3824      C3825   1.403       .  A
C3825      C3826   1.398       .  A
C3825      H3833   1.083       .  S
C3826      H3834   1.083       .  S
C3835      C3836   1.406       .  A
C3835      C3840   1.408       .  A
C3836      C3837   1.402       .  A
C3836      H3849   1.083       .  S
C3837      C3838   1.402       .  A
C3837      H3850   1.083       .  S
C3838      C3839   1.397       .  A
C3838      C3841   1.438       .  S
C3839      C3840   1.394       .  A
C3839      H3851   1.084       .  S
C3840      H3852   1.083       .  S
C3841      C3842   1.205       .  T
C3842      C3843   1.438       .  S
C3843      C3844   1.402       .  A
C3843      C3848   1.400       .  A
C3844      C3845   1.399       .  A
C3844      H3853   1.083       .  S
C3845      C3846   1.403       .  A
C3845      H3854   1.083       .  S
C3846      C3847   1.401       .  A
C3847      C3848   1.397       .  A
C3847      H3855   1.081       .  S
C3848      H3856   1.083       .  S
C3857      C3858   1.404       .  A
C3857      C3862   1.403       .  A
C3858      C3859   1.397       .  A
C3858      H3871   1.083       .  S
C3859      C3860   1.399       .  A
C3859      H3872   1.083       .  S
C3860      C3861   1.402       .  A
C3860      C3863   1.439       .  S
C3861      C3862   1.399       .  A
C3861      H3873   1.084       .  S
C3862      H3874   1.083       .  S
C3863      C3864   1.206       .  T
C3864      C3865   1.439       .  S
C3865      C3866   1.397       .  A
C3865      C3870   1.402       .  A
C3866      C3867   1.393       .  A
C3866      H3875   1.084       .  S
C3867      C3868   1.408       .  A
C3867      H3876   1.083       .  S
C3869      H3877   1.083   1_545  S
C3879      C3880   1.405       .  A
C3879      C3884   1.407       .  A
C3880      C3881   1.397       .  A
C3880      H3893   1.080       .  S
C3881      C3882   1.399       .  A
C3881      H3894   1.084       .  S
C3882      C3883   1.401       .  A
C3882      C3885   1.440       .  S
C3883      C3884   1.400       .  A
C3883      H3895   1.083       .  S
C3884      H3896   1.083       .  S
C3885      C3886   1.207       .  T
C3886      C3887   1.441       .  S
C3887      C3888   1.400       .  A
C3887      C3892   1.399       .  A
C3889      H3898   1.083       .  S
C3890      C3891   1.409       .  A
C3891      C3892   1.398       .  A
C3891      H3899   1.083       .  S
C3892      H3900   1.084       .  S
C3901      C3902   1.408       .  A
C3901      C3906   1.408       .  A
C3902      C3903   1.395       .  A
C3902      H3915   1.083       .  S
C3903      C3904   1.397       .  A
C3903      H3916   1.084       .  S
C3904      C3905   1.399       .  A
C3904      C3907   1.435       .  S
C3905      C3906   1.398       .  A
C3905      H3917   1.084       .  S
C3906      H3918   1.083       .  S
C3907      C3908   1.203       .  T
C3908      C3909   1.435       .  S
C3909      C3910   1.398       .  A
C3909      C3914   1.399       .  A
C3910      C3911   1.396       .  A
C3910      H3919   1.084       .  S
C3911      C3912   1.407       .  A
C3911      H3920   1.083       .  S
C3912      C3913   1.408       .  A
C3913      C3914   1.397       .  A
C3913      H3921   1.083       .  S
C3914      H3922   1.084       .  S
C3923      C3924   1.408       .  A
C3923      C3928   1.408       .  A
C3924      C3925   1.393       .  A
C3925      C3926   1.396       .  A
C3925      H3938   1.084       .  S
C3926      C3927   1.400       .  A
C3926      C3929   1.434       .  S
C3927      C3928   1.400       .  A
C3927      H3939   1.083       .  S
C3928      H3940   1.083       .  S
C3929      C3930   1.203       .  T
C3930      C3931   1.434       .  S
C3931      C3932   1.399       .  A
C3931      C3936   1.398       .  A
C3932      C3933   1.398       .  A
C3932      H3941   1.083       .  S
C3933      C3934   1.408       .  A
C3933      H3942   1.083       .  S
C3934      C3935   1.407       .  A
C3935      C3936   1.394       .  A
C3935      H3943   1.083       .  S
C3936      H3944   1.084       .  S
C3945      C3946   1.408       .  A
C3945      C3950   1.409       .  A
C3946      C3947   1.397       .  A
C3946      H3959   1.083       .  S
C3947      C3948   1.399       .  A
C3947      H3960   1.084       .  S
C3948      C3949   1.400       .  A
C3948      C3951   1.439       .  S
C3949      C3950   1.400       .  A
C3949      H3961   1.083       .  S
C3950      H3962   1.083       .  S
C3951      C3952   1.206       .  T
C3952      C3953   1.439       .  S
C3953      C3954   1.400       .  A
C3953      C3958   1.398       .  A
C3954      C3955   1.400       .  A
C3954      H3963   1.083       .  S
C3955      C3956   1.407       .  A
C3955      H3964   1.083       .  S
C3956      C3957   1.408       .  A
C3957      C3958   1.397       .  A
C3957      H3965   1.083       .  S
C3958      H3966   1.084       .  S
C3967      C3968   1.403       .  A
C3967      C3972   1.405       .  A
C3968      C3969   1.394       .  A
C3968      H3981   1.083       .  S
C3969      C3970   1.398       .  A
C3969      H3982   1.084       .  S
C3970      C3971   1.401       .  A
C3970      C3973   1.434       .  S
C3971      C3972   1.398       .  A
C3971      H3983   1.083       .  S
C3972      H3984   1.083       .  S
C3974      C3975   1.433       .  S
C3975      C3976   1.396       .  A
C3975      C3980   1.399       .  A
C3976      C3977   1.392       .  A
C3976      H3985   1.084       .  S
C3977      C3978   1.407       .  A
C3977      H3986   1.083       .  S
C3978      C3979   1.407       .  A
C3979      C3980   1.398       .  A
C3979      H3987   1.083       .  S
C3980      H3988   1.083       .  S
C3989      C3990   1.408       .  A
C3989      C3994   1.408       .  A
C3990      C3991   1.403       .  A
C3990      H4003   1.083       .  S
C3991      C3992   1.402       .  A
C3991      H4004   1.083       .  S
C3992      C3993   1.397       .  A
C3993      C3994   1.395       .  A
C3994      H4006   1.083       .  S
C3995      C3996   1.207   1_455  T
C3996      C3997   1.441       .  S
C3997      C3998   1.401       .  A
C3997      C4002   1.400       .  A
C3998      C3999   1.399       .  A
C3998      H4007   1.083       .  S
C3999      C4000   1.403       .  A
C3999      H4008   1.083       .  S
C4000      C4001   1.407       .  A
C4001      C4002   1.399       .  A
C4001      H4009   1.083       .  S
C4002      H4010   1.083       .  S
C4011      C4012   1.402       .  A
C4011      C4016   1.405       .  A
C4012      C4013   1.397       .  A
C4012      H4025   1.083       .  S
C4013      C4014   1.400       .  A
C4013      H4026   1.084       .  S
C4014      C4015   1.401       .  A
C4014      C4017   1.440       .  S
C4015      C4016   1.400       .  A
C4015      H4027   1.083       .  S
C4016      H4028   1.083       .  S
C4017      C4018   1.206       .  T
C4018      C4019   1.440       .  S
C4019      C4020   1.399       .  A
C4019      C4024   1.400       .  A
C4020      C4021   1.399       .  A
C4020      H4029   1.083       .  S
C4021      C4022   1.410       .  A
C4021      H4030   1.083       .  S
C4022      C4023   1.407       .  A
C4023      C4024   1.398       .  A
C4023      H4031   1.083       .  S
C4024      H4032   1.084       .  S
