geometry optimzed in LAMMPS
_audit_creation_date              2020-12-01 
_audit_creation_method            'lammps2cif' 
_symmetry_space_group_name_H-M    'P1' 
_symmetry_Int_Tables_number       1 
_symmetry_cell_setting            triclinic 
loop_ 
_symmetry_equiv_pos_as_xyz 
  x,y,z 
_cell_length_a                    34.74345997 
_cell_length_b                    33.23341073299079 
_cell_length_c                    51.76984698854585 
_cell_angle_alpha                 89.18583645788297 
_cell_angle_beta                  97.22004817290716 
_cell_angle_gamma                 120.9937974047558 
loop_ 
_atom_site_label 
_atom_site_type_symbol 
_atom_site_fract_x 
_atom_site_fract_y 
_atom_site_fract_z 
_atom_site_charge 
O1          O  0.99169738  0.96787643  0.39422118    -0.81200
O2          O  0.03436977  0.97915632  0.28190040    -0.65900
O3          O  0.03511877  0.01474612  0.35202722    -1.12500
C4          C  0.89259365  0.99261024  0.31566384     1.05700
O5          O  0.01890871  0.03349226  0.26964891    -0.79100
O6          O  0.98498191  0.07573130  0.29671668    -0.66700
Ni7        Ni  0.04725508  0.98525765  0.38089249     1.34900
C8          C  0.99818559  0.09534077  0.31961956     0.84400
O9          O  0.09480098  0.00334618  0.32574564    -0.79700
O10         O  0.10321875  0.99982062  0.36944594    -0.89900
C11         C  0.03023653  0.00414030  0.26419178     0.84000
O12         O  0.02073810  0.92261792  0.36635844    -0.68100
O13         O  0.90492764  0.99420881  0.29324996    -0.87400
C14         C  0.01086373  0.90537214  0.34310538     0.84800
C15         C  0.11671611  0.00232636  0.34725897     1.06400
H16         H  0.95490815  0.95339284  0.30947834     0.38200
O17         O  0.97678089  0.98677070  0.31166342    -1.10100
O18         O  0.00101338  0.07333742  0.33960039    -0.66700
Ni19       Ni  0.97609065  0.00665310  0.34567962     1.26300
O20         O  0.01068703  0.92880453  0.32338307    -0.67000
O21         O  0.91684631  0.99703693  0.33736211    -0.79200
C22         C  0.97841739  0.99584174  0.39909007     0.84200
O23         O  0.97634720  0.02209866  0.38149682    -0.66400
Ni24       Ni  0.96230986  0.01347455  0.28231030     1.27400
Ni25       Ni  0.03579884  0.99513789  0.31776065     1.26100
H26         H  0.05730310  0.04797712  0.35468220     0.38700
O27         O  0.02668300  0.48176771  0.39729985    -0.81200
O28         O  0.07010921  0.50996401  0.28329407    -0.65900
O29         O  0.06633570  0.53145813  0.35485330    -1.12500
C30         C  0.91632382  0.49352021  0.32169235     1.05700
O31         O  0.04164508  0.55483378  0.27281056    -0.79100
O32         O  0.99769330  0.58158335  0.30217147    -0.66700
Ni33       Ni  0.07911753  0.49778738  0.38100362     1.34900
C34         C  0.01324795  0.60194188  0.32482671     0.84400
O35         O  0.13196989  0.53722800  0.32663327    -0.79700
O36         O  0.13303006  0.51188529  0.36706738    -0.89900
C37         C  0.06115388  0.53352245  0.26666695     0.84000
O38         O  0.04641197  0.43649226  0.36370386    -0.68100
O39         O  0.92697402  0.49380071  0.29888603    -0.87400
C40         C  0.04413737  0.42423290  0.34022529     0.84800
C41         C  0.15168091  0.52876468  0.34667366     1.06400
H42         H  0.98863838  0.46690282  0.31286718     0.38200
O43         O  0.00690964  0.50080544  0.31491484    -1.10100
O44         O  0.02542395  0.58380316  0.34363656    -0.66700
Ni45       Ni  0.00554495  0.51818802  0.34941838     1.26300
O46         O  0.05306825  0.45306047  0.32211206    -0.67000
O47         O  0.94396724  0.50323432  0.34264561    -0.79200
C48         C  0.01361215  0.50955916  0.40284173     0.84200
O49         O  0.00724616  0.53333229  0.38525171    -0.66400
Ni50       Ni  0.98479082  0.52345455  0.28662989     1.27400
Ni51       Ni  0.06931961  0.51873877  0.31965162     1.26100
H52         H  0.08680256  0.56466781  0.35929711     0.38700
O53         O  0.50767747  0.95446006  0.40155050    -0.81200
O54         O  0.50191489  0.94390983  0.28089382    -0.65900
O55         O  0.52936962  0.98840342  0.35236687    -1.12500
C56         C  0.37945107  0.96016761  0.33786627     1.05700
O57         O  0.47216318  0.98768432  0.27040965    -0.79100
O58         O  0.45055835  0.03246469  0.30465120    -0.66700
Ni59       Ni  0.55040733  0.96146561  0.37879300     1.34900
C60         C  0.47674846  0.05926907  0.32430697     0.84400
O61         O  0.57665499  0.97791267  0.31653974    -0.79700
O62         O  0.59501637  0.96681186  0.35832747    -0.89900
C63         C  0.48964734  0.96445435  0.26378654     0.84000
O64         O  0.51241398  0.89666821  0.36734983    -0.68100
O65         O  0.37839706  0.94998527  0.31398741    -0.87400
C66         C  0.50134132  0.87753250  0.34447126     0.84800
C67         C  0.60254794  0.97346739  0.33462676     1.06400
H68         H  0.43779167  0.91817362  0.32183053     0.38200
O69         O  0.45713286  0.95159506  0.32026734    -1.10100
O70         O  0.49277834  0.04450323  0.34319850    -0.66700
Ni71       Ni  0.47194113  0.98106684  0.35437505     1.26300
O72         O  0.50020072  0.89984849  0.32435455    -0.67000
O73         O  0.41359647  0.97300861  0.35529895    -0.79200
C74         C  0.49870413  0.98550936  0.40742761     0.84200
O75         O  0.48950456  0.00726391  0.38964979    -0.66400
Ni76       Ni  0.42642487  0.96825704  0.29336956     1.27400
Ni77       Ni  0.51643793  0.96421235  0.31724696     1.26100
H78         H  0.55188959  0.02157609  0.35301091     0.38700
O79         O  0.52547701  0.45786283  0.39912504    -0.81200
O80         O  0.52997828  0.45798220  0.27902889    -0.65900
O81         O  0.55220306  0.49589477  0.35131873    -1.12500
C82         C  0.40581400  0.47693653  0.33263925     1.05700
O83         O  0.50655628  0.50733700  0.27018757    -0.79100
O84         O  0.48192000  0.55003749  0.30403425    -0.66700
Ni85       Ni  0.56765566  0.46284559  0.37670716     1.34900
C86         C  0.50347177  0.57293567  0.32563224     0.84400
O87         O  0.60174070  0.48639995  0.31615225    -0.79700
O88         O  0.61186457  0.46555007  0.35681104    -0.89900
C89         C  0.51826780  0.47957414  0.26246748     0.84000
O90         O  0.52470458  0.39995096  0.36313356    -0.68100
O91         O  0.40676242  0.46863887  0.30876598    -0.87400
C92         C  0.51561705  0.38357683  0.33977254     0.84800
C93         C  0.62342076  0.47608090  0.33406190     1.06400
H94         H  0.46208643  0.43182194  0.31724650     0.38200
O95         O  0.48305588  0.46527280  0.31712200    -1.10100
O96         O  0.51893001  0.55611406  0.34361905    -0.66700
Ni97       Ni  0.49508420  0.49064399  0.35192630     1.26300
O98         O  0.52140466  0.40937386  0.32043125    -0.67000
O99         O  0.43729742  0.48504316  0.35118674    -0.79200
C100        C  0.51654072  0.48878409  0.40525615     0.84200
O101        O  0.50948146  0.51242879  0.38783397    -0.66400
Ni102      Ni  0.45739436  0.48719290  0.29033087     1.27400
Ni103      Ni  0.54204920  0.47538922  0.31556801     1.26100
H104        H  0.57591767  0.52867346  0.35348481     0.38700
O105        O  0.01319437  0.95800550  0.93287330    -0.81200
O106        O  0.00310137  0.94665257  0.05291402    -0.65900
O107        O  0.98848830  0.97063791  0.98058352    -1.12500
C108        C  0.14347631  0.09463009  0.00182001     1.05700
O109        O  0.03426699  0.02240230  0.06299810    -0.79100
O110        O  0.06189272  0.09277227  0.03002803    -0.66700
Ni111      Ni  0.96564093  0.92165617  0.95396389     1.34900
C112        C  0.04204967  0.09510742  0.00822425     0.84400
O113        O  0.93093228  0.90710246  0.01421223    -0.79700
O114        O  0.91524919  0.88081505  0.97212292    -0.89900
C115        C  0.01752611  0.98042304  0.06988223     0.84000
O116        O  0.99730489  0.89129117  0.96751331    -0.68100
O117        O  0.13680394  0.08810809  0.02564299    -0.87400
C118        C  0.00765139  0.88407867  0.99078137     0.84800
C119        C  0.90437179  0.87815873  0.99505800     1.06400
H120        H  0.07453191  0.99051046  0.01678931     0.38200
O121        O  0.05630357  0.00485116  0.01611329    -1.10100
O122        O  0.03295759  0.06735248  0.98851709    -0.66700
Ni123      Ni  0.04988458  0.02145161  0.98105141     1.26300
O124        O  0.00787767  0.90689607  0.01049777    -0.67000
O125        O  0.11235969  0.07159932  0.98270176    -0.79200
C126        C  0.02974596  0.00076538  0.92729035     0.84200
O127        O  0.04067812  0.03239538  0.94495908    -0.66400
Ni128      Ni  0.08431797  0.05351305  0.04318399     1.27400
Ni129      Ni  0.99412863  0.95574974  0.01619616     1.26100
H130        H  0.96868899  0.98319133  0.97869512     0.38700
O131        O  0.00183655  0.51244448  0.93895575    -0.81200
O132        O  0.04225385  0.53268105  0.05656714    -0.65900
O133        O  0.04209596  0.50094881  0.98599846    -1.12500
C134        C  0.90318412  0.36506945  0.99800533     1.05700
O135        O  0.03074991  0.46261393  0.06638341    -0.79100
O136        O  0.01136374  0.39447821  0.02970027    -0.66700
Ni137      Ni  0.05935380  0.54672850  0.96078568     1.34900
C138        C  0.01194179  0.38390192  0.00635775     0.84400
O139        O  0.10218313  0.57715872  0.02261055    -0.79700
O140        O  0.11770851  0.58410164  0.98126568    -0.89900
C141        C  0.04205883  0.50434042  0.07337629     0.84000
O142        O  0.04070140  0.58650432  0.97406523    -0.68100
O143        O  0.92262463  0.37120243  0.02155696    -0.87400
C144        C  0.02300831  0.58706186  0.99397332     0.84800
C145        C  0.12833121  0.59801674  0.00537546     1.06400
H146        H  0.96248794  0.47146269  0.01903355     0.38200
O147        O  0.98521922  0.46336829  0.01768385    -1.10100
O148        O  0.00232738  0.40267861  0.98681859    -0.66700
Ni149      Ni  0.98143691  0.44717313  0.98177197     1.26300
O150        O  0.01573724  0.55769089  0.01169976    -0.67000
O151        O  0.92073080  0.39354064  0.98014532    -0.79200
C152        C  0.98426094  0.47060178  0.92955569     0.84200
O153        O  0.97936324  0.43793991  0.94458199    -0.66400
Ni154      Ni  0.97743051  0.41847698  0.04273468     1.27400
Ni155      Ni  0.04337484  0.52006679  0.02078271     1.26100
H156        H  0.06281915  0.48960608  0.98672816     0.38700
O157        O  0.56126319  0.00767546  0.06524829    -0.81200
O158        O  0.50393102  0.04585400  0.95061698    -0.65900
O159        O  0.51082086  0.02175875  0.02339597    -1.12500
C160        C  0.46761127  0.86979572  0.98816618     1.05700
O161        O  0.43841894  0.98051644  0.94514519    -0.79100
O162        O  0.40215742  0.90551976  0.97531259    -0.66700
Ni163      Ni  0.56558830  0.06012498  0.04622633     1.34900
C164        C  0.39875690  0.90936094  0.99911518     0.84400
O165        O  0.52094536  0.09722025  0.99556049    -0.79700
O166        O  0.57393696  0.11655477  0.03043793    -0.89900
C167        C  0.46828288  0.01682162  0.93556242     0.84000
O168        O  0.60397382  0.05606993  0.02421326    -0.68100
O169        O  0.46297397  0.88430887  0.96564371    -0.87400
C170        C  0.60784974  0.07055172  0.00127385     0.84800
C171        C  0.55343781  0.12757860  0.01205143     1.06400
H172        H  0.52702475  0.97729666  0.97760203     0.38200
O173        O  0.49953501  0.97445549  0.98196892    -1.10100
O174        O  0.43209496  0.93750698  0.01571145    -0.66700
Ni175      Ni  0.49518465  0.95825941  0.01728868     1.26300
O176        O  0.57368282  0.06478331  0.98579940    -0.67000
O177        O  0.47879227  0.89448938  0.00956582    -0.79200
C178        C  0.52498771  0.97272563  0.07143862     0.84200
O179        O  0.49285300  0.94662076  0.05363430    -0.66400
Ni180      Ni  0.45188617  0.93330260  0.95577243     1.27400
Ni181      Ni  0.50946541  0.03601826  0.98751638     1.26100
H182        H  0.48657825  0.02247546  0.03029519     0.38700
O183        O  0.54689599  0.52954345  0.06682375    -0.81200
O184        O  0.50519259  0.53297575  0.94514329    -0.65900
O185        O  0.49568169  0.50583070  0.01688340    -1.12500
C186        C  0.56828345  0.42303798  0.99901670     1.05700
O187        O  0.47812318  0.45845568  0.93482140    -0.79100
O188        O  0.46697245  0.39198428  0.96775599    -0.66700
Ni189      Ni  0.51890291  0.55532820  0.04309815     1.34900
C190        C  0.44869682  0.38555126  0.98835532     0.84400
O191        O  0.46843054  0.55257304  0.98150814    -0.79700
O192        O  0.49155490  0.58498145  0.02254703    -0.89900
C193        C  0.48790213  0.49914246  0.92802820     0.84000
O194        O  0.57597079  0.59420765  0.03111357    -0.68100
O195        O  0.55842633  0.42690316  0.97487178    -0.87400
C196        C  0.58626908  0.60424207  0.00826540     0.84800
C197        C  0.47056658  0.57935654  0.99958775     1.06400
H198        H  0.56597268  0.51294135  0.98323193     0.38200
O199        O  0.53418683  0.49010628  0.98298513    -1.10100
O200        O  0.46740431  0.41468895  0.00806880    -0.66700
Ni201      Ni  0.52533661  0.47111597  0.01766313     1.26300
O202        O  0.55832853  0.58138900  0.98803576    -0.67000
O203        O  0.55603986  0.43724847  0.01734975    -0.79200
C204        C  0.53188477  0.48667909  0.07140412     0.84200
O205        O  0.51612323  0.45528839  0.05296020    -0.66400
Ni206      Ni  0.51872477  0.44415397  0.95589910     1.27400
Ni207      Ni  0.50140451  0.52169818  0.98140170     1.26100
H208        H  0.46395471  0.48495372  0.01822039     0.38700
O209        O  0.99688849  0.03322122  0.59756132    -0.81200
O210        O  0.02911577  0.03758868  0.71734367    -0.65900
O211        O  0.99272717  0.99329260  0.64555028    -1.12500
C212        C  0.87683244  0.02778532  0.65403231     1.05700
O213        O  0.95801612  0.99065190  0.72346493    -0.79100
O214        O  0.88184779  0.94851099  0.68757829    -0.66700
Ni215      Ni  0.03452054  0.01771092  0.62100816     1.34900
C216        C  0.87351462  0.92354505  0.66694325     0.84400
O217        O  0.06277975  0.00506571  0.68444746    -0.79700
O218        O  0.07530575  0.00417499  0.64274222    -0.89900
C219        C  0.99965627  0.01674521  0.73270155     0.84000
O220        O  0.07119768  0.08230926  0.63348322    -0.68100
O221        O  0.89002878  0.03196398  0.67857624    -0.87400
C222        C  0.08028685  0.10287130  0.65579571     0.84800
C223        C  0.08509783  0.00256575  0.66727421     1.06400
H224        H  0.97872778  0.06324375  0.67444582     0.38200
O225        O  0.96539868  0.02967040  0.67535249    -1.10100
O226        O  0.89904327  0.93858314  0.64886432    -0.66700
Ni227      Ni  0.94255676  0.00335549  0.64045147     1.26300
O228        O  0.05871820  0.08232189  0.67476926    -0.67000
O229        O  0.89333209  0.01560905  0.63700631    -0.79200
C230        C  0.95540888  0.00515232  0.58865899     0.84200
O231        O  0.92677403  0.98170443  0.60416653    -0.66400
Ni232      Ni  0.92510724  0.01176890  0.70026295     1.27400
Ni233      Ni  0.01407509  0.01751485  0.68094889     1.26100
H234        H  0.98075166  0.95981272  0.64536577     0.38700
O235        O  0.02212444  0.52055273  0.72893949    -0.81200
O236        O  0.01434252  0.52651660  0.61060088    -0.65900
O237        O  0.00030061  0.54686809  0.68027833    -1.12500
C238        C  0.87144585  0.39297136  0.66442888     1.05700
O239        O  0.94280882  0.50559592  0.59967426    -0.79100
O240        O  0.88021576  0.48471136  0.63211706    -0.66700
Ni241      Ni  0.05015335  0.57324990  0.70726153     1.34900
C242        C  0.87764566  0.49881802  0.65412283     0.84400
O243        O  0.06228404  0.60024975  0.64555664    -0.79700
O244        O  0.08144126  0.62787720  0.68762196    -0.89900
C245        C  0.98088103  0.51623905  0.59321647     0.84000
O246        O  0.08550178  0.54942239  0.69578786    -0.68100
O247        O  0.87335488  0.40174626  0.64036931    -0.87400
C248        C  0.08355296  0.52705178  0.67544334     0.84800
C249        C  0.08646723  0.63270218  0.66350851     1.06400
H250        H  0.96892593  0.45412378  0.64824200     0.38200
O251        O  0.95900409  0.47648954  0.64804561    -1.10100
O252        O  0.90514506  0.50350327  0.67455530    -0.66700
Ni253      Ni  0.95035514  0.48440328  0.68274794     1.26300
O254        O  0.05213637  0.51518299  0.65613477    -0.67000
O255        O  0.90052090  0.42112046  0.68312051    -0.79200
C256        C  0.98279490  0.50199198  0.73585908     0.84200
O257        O  0.94889203  0.49379941  0.71916059    -0.66400
Ni258      Ni  0.90968993  0.45434627  0.62095705     1.27400
Ni259      Ni  0.01060158  0.53791164  0.64608879     1.26100
H260        H  0.98869448  0.56783081  0.67912172     0.38700
O261        O  0.44302789  0.00206210  0.60506497    -0.81200
O262        O  0.44475327  0.99211582  0.72350368    -0.65900
O263        O  0.46889466  0.03970418  0.65628635    -1.12500
C264        C  0.58374720  0.00469408  0.66356310     1.05700
O265        O  0.51632918  0.01561294  0.73944336    -0.79100
O266        O  0.57026259  0.07946008  0.70734184    -0.66700
Ni267      Ni  0.42152385  0.02689855  0.62905182     1.34900
C268        C  0.58032484  0.10033194  0.68632636     0.84400
O269        O  0.41133342  0.03355917  0.69173751    -0.79700
O270        O  0.39537858  0.04978139  0.65084049    -0.89900
C271        C  0.47590206  0.00276751  0.74255770     0.84000
O272        O  0.37911187  0.96422489  0.63632864    -0.68100
O273        O  0.58626039  0.01435686  0.68768705    -0.87400
C274        C  0.37582532  0.93833660  0.65517668     0.84800
C275        C  0.38957044  0.04562531  0.67480231     1.06400
H276        H  0.48105718  0.96057968  0.68311324     0.38200
O277        O  0.49696335  0.99449531  0.68502261    -1.10100
O278        O  0.56063767  0.07986684  0.66382378    -0.66700
Ni279      Ni  0.50931868  0.01868092  0.65113775     1.26300
O280        O  0.40489710  0.95283638  0.67572938    -0.67000
O281        O  0.55025044  0.99749937  0.64697530    -0.79200
C282        C  0.48262570  0.02150537  0.59879509     0.84200
O283        O  0.51676543  0.04050747  0.61645655    -0.66400
Ni284      Ni  0.54780277  0.01449941  0.71154933     1.27400
Ni285      Ni  0.45459652  0.01435998  0.68922629     1.26100
H286        H  0.48629721  0.07349964  0.65927342     0.38700
O287        O  0.44250623  0.47119556  0.60213792    -0.81200
O288        O  0.44583719  0.50076959  0.71921399    -0.65900
O289        O  0.45850426  0.52223932  0.64752945    -1.12500
C290        C  0.58773474  0.50314867  0.67073937     1.05700
O291        O  0.51863122  0.55429478  0.72733063    -0.79100
O292        O  0.58479249  0.58964912  0.69583949    -0.66700
Ni293      Ni  0.40920375  0.49055485  0.62045759     1.34900
C294        C  0.58305161  0.60580020  0.67359439     0.84400
O295        O  0.39655102  0.51768529  0.68013801    -0.79700
O296        O  0.37233656  0.50794209  0.63689463    -0.89900
C297        C  0.48077000  0.52758746  0.73542024     0.84000
O298        O  0.37804555  0.43006307  0.63438599    -0.68100
O299        O  0.58214100  0.50676435  0.69440339    -0.87400
C300        C  0.37657950  0.41533690  0.65724739     0.84800
C301        C  0.36848434  0.51490174  0.66045754     1.06400
H302        H  0.48765250  0.46610447  0.68424338     0.38200
O303        O  0.49917229  0.49938096  0.68322316    -1.10100
O304        O  0.55185378  0.58126050  0.65488248    -0.66700
Ni305      Ni  0.51006307  0.51401431  0.64838527     1.26300
O306        O  0.40456203  0.44144602  0.67687726    -0.67000
O307        O  0.56253334  0.50585512  0.65110018    -0.79200
C308        C  0.48097654  0.49941961  0.59514378     0.84200
O309        O  0.51453947  0.52523467  0.61229054    -0.66400
Ni310      Ni  0.54903973  0.52989025  0.71018235     1.27400
Ni311      Ni  0.44835776  0.50887988  0.68264669     1.26100
H312        H  0.46931522  0.55531400  0.64612377     0.38700
C313        C  0.61941545  0.14900508  0.68776836    -0.20200
C314        C  0.65798392  0.16342927  0.70659256     0.36000
C315        C  0.69800926  0.20599371  0.70447570    -0.26200
C316        C  0.70062381  0.23433005  0.68373436     0.02500
C317        C  0.66169390  0.22131871  0.66554649     0.27300
C318        C  0.62138735  0.17869855  0.66775712    -0.25300
N319        N  0.65788080  0.13341967  0.72676850    -0.82700
H320        H  0.72802613  0.21555353  0.71824822     0.13100
C321        C  0.74547295  0.27452624  0.67974553     0.02400
N322        N  0.66381781  0.25068038  0.64444185    -0.81200
H323        H  0.59194695  0.16773494  0.65324170     0.17900
C324        C  0.76234773  0.27447687  0.65658007    -0.26100
C325        C  0.80480689  0.31129467  0.65178872     0.35900
C326        C  0.83107089  0.34920943  0.67068122    -0.20100
C327        C  0.81492172  0.34811260  0.69442128    -0.25400
C328        C  0.77217405  0.31123221  0.69907064     0.27300
H329        H  0.74218208  0.24538403  0.64215218     0.13100
N330        N  0.82104930  0.31047197  0.62769008    -0.82600
H331        H  0.83461300  0.37724361  0.70886493     0.17900
N332        N  0.75525692  0.31145148  0.72299212    -0.81200
H333        H  0.84991146  0.30799904  0.63225917     0.33600
H334        H  0.79725909  0.28053668  0.61582002     0.38100
H335        H  0.77908930  0.34092756  0.73516528     0.33500
H336        H  0.72679517  0.31460092  0.71830477     0.30200
H337        H  0.63244932  0.23584567  0.63261236     0.33500
H338        H  0.67044489  0.28261351  0.65256810     0.30200
H339        H  0.68300240  0.12572071  0.72466340     0.38100
H340        H  0.66648694  0.15200555  0.74474360     0.33600
C341        C  0.12440755  0.67748389  0.65643631    -0.20200
C342        C  0.13195172  0.72103604  0.66559275     0.36000
C343        C  0.17257492  0.76252636  0.66216613    -0.26200
C344        C  0.20576079  0.76091767  0.65012641     0.02500
C345        C  0.19749425  0.71765975  0.64002109     0.27300
C346        C  0.15653935  0.67625326  0.64303383    -0.25300
N347        N  0.09875040  0.72271286  0.67878815    -0.82700
H348        H  0.17916740  0.79606622  0.66971418     0.13100
C349        C  0.25033592  0.80439932  0.65004667     0.02400
N350        N  0.23155529  0.71585359  0.62780514    -0.81200
H351        H  0.15076631  0.64264030  0.63621878     0.17900
C352        C  0.28516648  0.81451775  0.67044960    -0.26100
C353        C  0.32731701  0.85689997  0.67217180     0.35900
C354        C  0.33454607  0.89009865  0.65303635    -0.20100
C355        C  0.29964608  0.87854186  0.63206020    -0.25400
C356        C  0.25769945  0.83623399  0.63046064     0.27300
H357        H  0.27908035  0.78941004  0.68532070     0.13100
N358        N  0.36222010  0.86634908  0.69346099    -0.82600
H359        H  0.30437280  0.90320450  0.61711514     0.17900
N360        N  0.22208620  0.82605064  0.60946162    -0.81200
H361        H  0.35079543  0.83891927  0.70611546     0.33600
H362        H  0.38889705  0.86716775  0.68561348     0.38100
H363        H  0.23269369  0.85350992  0.59683116     0.33500
H364        H  0.21560084  0.79643366  0.59857684     0.30200
H365        H  0.22059928  0.68119216  0.62194086     0.33500
H366        H  0.23564506  0.73424310  0.61083222     0.30200
H367        H  0.06931175  0.71042884  0.66539431     0.38100
H368        H  0.10955073  0.75743468  0.68441241     0.33600
C369        C  0.83824538  0.50627357  0.65576987    -0.20200
C370        C  0.80575841  0.49813119  0.63351976     0.36000
C371        C  0.76539056  0.49724557  0.63639802    -0.26200
C372        C  0.75610813  0.50573786  0.66067315     0.02500
C373        C  0.78898060  0.51570655  0.68274082     0.27300
C374        C  0.82913286  0.51544064  0.68011251    -0.25300
N375        N  0.81304261  0.48975514  0.60788879    -0.82700
H376        H  0.74048073  0.48924577  0.61938518     0.13100
C377        C  0.71180630  0.50371252  0.66243837     0.02400
N378        N  0.78151433  0.52606257  0.70784471    -0.81200
H379        H  0.85303025  0.52156416  0.69735913     0.17900
C380        C  0.68332815  0.47544526  0.68048812    -0.26100
C381        C  0.64191389  0.47299188  0.68278700     0.35900
C382        C  0.62759094  0.49871040  0.66636536    -0.20100
C383        C  0.65517954  0.52555037  0.64766471    -0.25400
C384        C  0.69714659  0.52897165  0.64581735     0.27300
H385        H  0.69347322  0.45507773  0.69292644     0.13100
N386        N  0.61434971  0.44441659  0.70183864    -0.82600
H387        H  0.64511505  0.54607970  0.63530530     0.17900
N388        N  0.72570595  0.55944273  0.62766246    -0.81200
H389        H  0.62955482  0.42803158  0.71247445     0.33600
H390        H  0.58378414  0.41760893  0.69176189     0.38100
H391        H  0.71037654  0.57565031  0.61696788     0.33500
H392        H  0.75534432  0.58628240  0.63848988     0.30200
H393        H  0.80853552  0.53252979  0.72207319     0.33500
H394        H  0.78102025  0.55723926  0.70681347     0.30200
H395        H  0.84056256  0.52101666  0.60285739     0.38100
H396        H  0.78530248  0.48236203  0.59399712     0.33600
C397        C  0.32758221  0.51724738  0.66473324    -0.20200
C398        C  0.31198994  0.54157257  0.64804271     0.36000
C399        C  0.27076756  0.53895944  0.65088371    -0.26200
C400        C  0.24360041  0.51147068  0.66953706     0.02500
C401        C  0.25815262  0.48562458  0.68559713     0.27300
C402        C  0.30030382  0.48963091  0.68341901    -0.25300
N403        N  0.33804063  0.56880112  0.62812846    -0.82700
H404        H  0.25960041  0.55845858  0.63836880     0.13100
C405        C  0.20089521  0.51148915  0.67226812     0.02400
N406        N  0.22896308  0.45323737  0.70292431    -0.81200
H407        H  0.31089067  0.46923544  0.69552932     0.17900
C408        C  0.16153847  0.48571293  0.65402444    -0.26100
C409        C  0.12216178  0.48850573  0.65480720     0.35900
C410        C  0.12179602  0.51772154  0.67441539    -0.20100
C411        C  0.16126221  0.54266202  0.69282271    -0.25400
C412        C  0.20058712  0.54055036  0.69172360     0.27300
H413        H  0.16186044  0.46391659  0.63878924     0.13100
N414        N  0.08309911  0.46235335  0.63551095    -0.82600
H415        H  0.16241841  0.56589430  0.70774947     0.17900
N416        N  0.24127210  0.57039741  0.70932653    -0.81200
H417        H  0.08917327  0.44351201  0.62223954     0.33600
H418        H  0.05674169  0.43746591  0.64512241     0.38100
H419        H  0.23625559  0.59153391  0.72158524     0.33500
H420        H  0.24857350  0.54914889  0.72143658     0.30200
H421        H  0.24373321  0.43557949  0.71254484     0.33500
H422        H  0.22551576  0.47232168  0.71734148     0.30200
H423        H  0.36888548  0.59643460  0.63742588     0.38100
H424        H  0.32186427  0.58406185  0.61730692     0.33600
C425        C  0.82957909  0.87665674  0.66400606    -0.20200
C426        C  0.79015082  0.87393604  0.67113413     0.36000
C427        C  0.74970048  0.83015036  0.67094182    -0.26200
C428        C  0.74662314  0.78800996  0.66375137     0.02500
C429        C  0.78519347  0.79043076  0.65549895     0.27300
C430        C  0.82615894  0.83469847  0.65554041    -0.25300
N431        N  0.79117659  0.91609910  0.67844129    -0.82700
H432        H  0.72009531  0.82886634  0.67656612     0.13100
C433        C  0.70307869  0.74209714  0.66581428     0.02400
N434        N  0.78297052  0.74788730  0.64768616    -0.81200
H435        H  0.85580780  0.83620924  0.64985252     0.17900
C436        C  0.67937853  0.71029531  0.64393808    -0.26100
C437        C  0.63846521  0.66703708  0.64538677     0.35900
C438        C  0.62083098  0.65458684  0.66945286    -0.20100
C439        C  0.64387083  0.68716947  0.69104798    -0.25400
C440        C  0.68432167  0.73048446  0.68951202     0.27300
H441        H  0.69288740  0.71931344  0.62557291     0.13100
N442        N  0.61605730  0.63499078  0.62274198    -0.82600
H443        H  0.63081468  0.67824139  0.70955354     0.17900
N444        N  0.70705152  0.76229891  0.71223492    -0.81200
H445        H  0.63467474  0.64814544  0.60712758     0.33600
H446        H  0.58524760  0.63322468  0.61702717     0.38100
H447        H  0.68883641  0.74894485  0.72799459     0.33500
H448        H  0.73821555  0.76462824  0.71750663     0.30200
H449        H  0.81387329  0.75541687  0.64222652     0.33500
H450        H  0.77792456  0.72763159  0.66396155     0.30200
H451        H  0.79607566  0.93569074  0.66194201     0.38100
H452        H  0.75993980  0.90828550  0.68350192     0.33600
C453        C  0.12077820  0.15163310  0.66010862    -0.20200
C454        C  0.12700804  0.18694618  0.64271172     0.36000
C455        C  0.16943322  0.22944753  0.64444618    -0.26200
C456        C  0.20675616  0.23705079  0.66257032     0.02500
C457        C  0.20023204  0.20182499  0.68020658     0.27300
C458        C  0.15723437  0.16013226  0.67912940    -0.25300
N459        N  0.09044325  0.17904613  0.62296937    -0.82700
H460        H  0.17377764  0.25639781  0.63107462     0.13100
C461        C  0.25268331  0.28081922  0.66192597     0.02400
N462        N  0.23782535  0.20741664  0.69831387    -0.81200
H463        H  0.15303582  0.13264301  0.69207013     0.17900
C464        C  0.27733164  0.30997524  0.68470110    -0.26100
C465        C  0.31968102  0.35220744  0.68437570     0.35900
C466        C  0.33786184  0.36641876  0.66055425    -0.20100
C467        C  0.31385636  0.33602011  0.63809881    -0.25400
C468        C  0.27204854  0.29374013  0.63852323     0.27300
H469        H  0.26291068  0.30030475  0.70277420     0.13100
N470        N  0.34301843  0.38146879  0.70795204    -0.82600
H471        H  0.32724392  0.34586196  0.61972865     0.17900
N472        N  0.24896772  0.26396682  0.61507837    -0.81200
H473        H  0.32423310  0.36707534  0.72340118     0.33600
H474        H  0.37307401  0.38133278  0.71286642     0.38100
H475        H  0.26728713  0.27854215  0.59947139     0.33500
H476        H  0.24776290  0.23219808  0.61814083     0.30200
H477        H  0.22761796  0.17833499  0.70974099     0.33500
H478        H  0.26157016  0.20811092  0.68745682     0.30200
H479        H  0.06423815  0.17593949  0.63242723     0.38100
H480        H  0.10041476  0.20812256  0.61155780     0.33600
C481        C  0.83791673  0.03424506  0.64577546    -0.20200
C482        C  0.83159258  0.06537959  0.66045485     0.36000
C483        C  0.78886248  0.06088881  0.65785375    -0.26200
C484        C  0.75197354  0.02544087  0.64126968     0.02500
C485        C  0.75913603  0.99729381  0.62468650     0.27300
C486        C  0.80246209  0.00257799  0.62676922    -0.25300
N487        N  0.86800218  0.09977248  0.67903067    -0.82700
H488        H  0.78337723  0.08302040  0.67021134     0.13100
C489        C  0.70572969  0.01417572  0.64496281     0.02400
N490        N  0.72192558  0.96169247  0.60702688    -0.81200
H491        H  0.80719938  0.97874314  0.61537774     0.17900
C492        C  0.67857006  0.02188529  0.62553111    -0.26100
C493        C  0.63737599  0.01726235  0.63049046     0.35900
C494        C  0.62289826  0.00374832  0.65526681    -0.20100
C495        C  0.64930861  0.99375724  0.67400319    -0.25400
C496        C  0.69029376  0.99878461  0.66915384     0.27300
H497        H  0.69059275  0.03367734  0.60696094     0.13100
N498        N  0.61157860  0.02835629  0.61094249    -0.82600
H499        H  0.63844334  0.98297251  0.69292318     0.17900
N500        N  0.71713799  0.98949298  0.68902532    -0.81200
H501        H  0.62647941  0.03688622  0.59379463     0.33600
H502        H  0.61306200  0.05861616  0.61783361     0.38100
H503        H  0.70150557  0.97918958  0.70588402     0.33500
H504        H  0.71859338  0.96099674  0.68205786     0.30200
H505        H  0.73284869  0.94399942  0.59625137     0.33500
H506        H  0.69850765  0.93677306  0.61820142     0.30200
H507        H  0.89378688  0.12333919  0.66862699     0.38100
H508        H  0.85761016  0.11932223  0.68859356     0.33600
C509        C  0.12714487  0.00193964  0.67596991    -0.20200
C510        C  0.14104014  0.97810329  0.66067684     0.36000
C511        C  0.18564976  0.98733384  0.66587243    -0.26200
C512        C  0.21682549  0.02029264  0.68579329     0.02500
C513        C  0.20267269  0.04279677  0.70178034     0.27300
C514        C  0.15762235  0.03268763  0.69702252    -0.25300
N515        N  0.11023612  0.94587043  0.63935763    -0.82700
H516        H  0.19684570  0.97028965  0.65360082     0.13100
C517        C  0.26507595  0.03417082  0.68744158     0.02400
N518        N  0.23483857  0.07819295  0.72148039    -0.81200
H519        H  0.14734867  0.05165450  0.70851538     0.17900
C520        C  0.29150412  0.06643490  0.67010397    -0.26100
C521        C  0.33467311  0.07456828  0.66736095     0.35900
C522        C  0.35181490  0.04984182  0.68237077    -0.20100
C523        C  0.32664415  0.02040182  0.70123791    -0.25400
C524        C  0.28311238  0.01172800  0.70362957     0.27300
H525        H  0.27738149  0.08360883  0.65774571     0.13100
N526        N  0.36025118  0.10623129  0.64857841    -0.82600
H527        H  0.33915189  0.00083264  0.71259033     0.17900
N528        N  0.25587500  0.97757073  0.72095292    -0.81200
H529        H  0.34252490  0.12087045  0.63884737     0.33600
H530        H  0.38990006  0.13402444  0.65883725     0.38100
H531        H  0.27347774  0.96284682  0.73073669     0.33500
H532        H  0.25030652  0.99511035  0.73525318     0.30200
H533        H  0.21941800  0.09271533  0.73084449     0.33500
H534        H  0.24518528  0.06184619  0.73570265     0.30200
H535        H  0.08346330  0.91777700  0.64722790     0.38100
H536        H  0.12586670  0.93179550  0.62981644     0.33600
C537        C  0.47846763  0.50568403  0.89982878    -0.20200
C538        C  0.48614120  0.54904909  0.89022365     0.36000
C539        C  0.47990080  0.55313819  0.86308146    -0.26200
C540        C  0.46675404  0.51523526  0.84546096     0.02500
C541        C  0.45777592  0.47177365  0.85487044     0.27300
C542        C  0.46315299  0.46728666  0.88184303    -0.25300
N543        N  0.50112146  0.58903723  0.90778095    -0.82700
H544        H  0.48743059  0.58666010  0.85555940     0.13100
C545        C  0.46997292  0.52316153  0.81746216     0.02400
N546        N  0.44588087  0.43317073  0.83692648    -0.81200
H547        H  0.45694638  0.43379994  0.88872741     0.17900
C548        C  0.51181126  0.53824823  0.80909290    -0.26100
C549        C  0.51628312  0.54057158  0.78250011     0.35900
C550        C  0.47790651  0.52816027  0.76376315    -0.20100
C551        C  0.43623698  0.51467678  0.77230938    -0.25400
C552        C  0.43187814  0.51200380  0.79906697     0.27300
H553        H  0.54078833  0.54643520  0.82344920     0.13100
N554        N  0.55927798  0.55366330  0.77455187    -0.82600
H555        H  0.40692362  0.50572216  0.75807804     0.17900
N556        N  0.38917124  0.49823967  0.80760589    -0.81200
H557        H  0.58398579  0.56257446  0.79076888     0.33600
H558        H  0.55550437  0.52402614  0.76505620     0.38100
H559        H  0.36479524  0.49202021  0.79161844     0.33500
H560        H  0.37781235  0.46627675  0.81639881     0.30200
H561        H  0.44198829  0.40407512  0.84698560     0.33500
H562        H  0.41425970  0.42285104  0.82633973     0.30200
H563        H  0.53459903  0.60072885  0.91575297     0.38100
H564        H  0.50210434  0.61687040  0.89758775     0.33600
C565        C  0.45050452  0.60815129  0.99348926    -0.20200
C566        C  0.42714269  0.61538208  0.01150605     0.36000
C567        C  0.41883166  0.65225214  0.00833774    -0.26200
C568        C  0.43406706  0.68187789  0.98772665     0.02500
C569        C  0.45432594  0.67217932  0.96871615     0.27300
C570        C  0.46155601  0.63467690  0.97148158    -0.25300
N571        N  0.41398464  0.58666030  0.03350184    -0.82700
H572        H  0.40315269  0.65987710  0.02283847     0.13100
C573        C  0.43684534  0.72742381  0.98904535     0.02400
N574        N  0.47119217  0.70276231  0.94789330    -0.81200
H575        H  0.47974623  0.62919707  0.95771054     0.17900
C576        C  0.46325289  0.75863295  0.01066096    -0.26100
C577        C  0.47331506  0.80510845  0.01106642     0.35900
C578        C  0.45723490  0.82088946  0.98924749    -0.20100
C579        C  0.42860889  0.78858909  0.96825345    -0.25400
C580        C  0.41790234  0.74190189  0.96817303     0.27300
H581        H  0.47761784  0.74736466  0.02691691     0.13100
N582        N  0.50077943  0.83621885  0.03335726    -0.82600
H583        H  0.41418981  0.79942797  0.95182280     0.17900
N584        N  0.38787384  0.70926042  0.94694759    -0.81200
H585        H  0.53166394  0.83735940  0.03615377     0.33600
H586        H  0.48438897  0.82203612  0.04967941     0.38100
H587        H  0.35685390  0.70768004  0.94575939     0.33500
H588        H  0.40140306  0.72247692  0.92969730     0.30200
H589        H  0.50609764  0.71641279  0.94938313     0.33500
H590        H  0.45592152  0.68259199  0.93026368     0.30200
H591        H  0.39029388  0.55219639  0.02627440     0.38100
H592        H  0.39752967  0.59694806  0.04503812     0.33600
C593        C  0.56975869  0.17827535  0.00983468    -0.20200
C594        C  0.55377306  0.19516659  0.98841427     0.36000
C595        C  0.56894196  0.24319290  0.98823629    -0.26200
C596        C  0.60054173  0.27493047  0.00848703     0.02500
C597        C  0.61862712  0.25886058  0.02902352     0.27300
C598        C  0.60297489  0.21072970  0.02957018    -0.25300
N599        N  0.52185701  0.16379973  0.96709543    -0.82700
H600        H  0.55476729  0.25575996  0.97259671     0.13100
C601        C  0.60844483  0.32296179  0.00955624     0.02400
N602        N  0.65195326  0.29138702  0.04950124    -0.81200
H603        H  0.61641706  0.19861349  0.04581486     0.17900
C604        C  0.59614564  0.33721834  0.03084004    -0.26100
C605        C  0.58812611  0.37431795  0.02913491     0.35900
C606        C  0.59189999  0.39706282  0.00553298    -0.20100
C607        C  0.61090286  0.38731103  0.98582876    -0.25400
C608        C  0.61913960  0.35024111  0.98761305     0.27300
H609        H  0.58850669  0.31675133  0.04795835     0.03500
N610        N  0.57271461  0.38599375  0.05064476    -0.82600
H611        H  0.61590632  0.40605038  0.96808685     0.17900
N612        N  0.63515164  0.33794476  0.96653245    -0.81200
H613        H  0.59729822  0.39532437  0.06697042     0.33600
H614        H  0.54290206  0.35598354  0.05460942     0.38100
H615        H  0.64074770  0.36112608  0.95162627     0.33500
H616        H  0.66661426  0.34223602  0.97373882     0.30200
H617        H  0.66159687  0.27384971  0.06332490     0.33500
H618        H  0.68087736  0.31459323  0.04114974     0.30200
H619        H  0.53856366  0.15144502  0.95720587     0.38100
H620        H  0.51219067  0.18181450  0.95363504     0.33600
C621        C  0.46649759  0.00255301  0.76977064    -0.20200
C622        C  0.45024386  0.03061191  0.77824634     0.36000
C623        C  0.44926946  0.03603713  0.80511219    -0.26200
C624        C  0.46373863  0.01357072  0.82355615     0.02500
C625        C  0.47853519  0.98429516  0.81502669     0.27300
C626        C  0.48022661  0.97949279  0.78827179    -0.25300
N627        N  0.43710202  0.05545566  0.75972582    -0.82700
H628        H  0.43763740  0.05821712  0.81175315     0.13100
C629        C  0.46274409  0.02004321  0.85180147     0.02400
N630        N  0.49180214  0.95960363  0.83361945    -0.81200
H631        H  0.49303522  0.95826485  0.78182043     0.17900
C632        C  0.42433130  0.98790090  0.86284655    -0.26100
C633        C  0.42409284  0.98864258  0.88995491     0.35900
C634        C  0.46349193  0.02174323  0.90670263    -0.20100
C635        C  0.50074668  0.05627408  0.89530897    -0.25400
C636        C  0.50075775  0.05570317  0.86803171     0.27300
H637        H  0.39472084  0.96104411  0.85038465     0.13100
N638        N  0.38392423  0.95484852  0.90030274    -0.82600
H639        H  0.53084528  0.08242077  0.90773895     0.17900
N640        N  0.53953122  0.09057408  0.85679795    -0.81200
H641        H  0.35726841  0.95910283  0.89206213     0.33600
H642        H  0.37623924  0.92123027  0.89444873     0.38100
H643        H  0.56437870  0.11470473  0.87130238     0.33500
H644        H  0.55371560  0.07353723  0.84856164     0.30200
H645        H  0.50107286  0.93890345  0.82417824     0.33500
H646        H  0.52076186  0.98461667  0.84575135     0.30200
H647        H  0.42808442  0.07631438  0.76923264     0.38100
H648        H  0.40784818  0.03039647  0.74782301     0.33600
C649        C  0.85799021  0.32187107  0.99184439    -0.20200
C650        C  0.82406122  0.31146329  0.00758462     0.36000
C651        C  0.78463252  0.26666677  0.00504360    -0.26200
C652        C  0.77849591  0.23161480  0.98733508     0.02500
C653        C  0.81142151  0.24245964  0.97071478     0.27300
C654        C  0.85083395  0.28781726  0.97296914    -0.25300
N655        N  0.83044733  0.34624376  0.02659941    -0.82700
H656        H  0.75899903  0.25845037  0.01753303     0.13100
C657        C  0.73850045  0.18336628  0.98803620     0.02400
N658        N  0.80550941  0.20698923  0.95239379    -0.81200
H659        H  0.87711878  0.29572021  0.96104832     0.17900
C660        C  0.70315755  0.16422721  0.96712143    -0.26100
C661        C  0.66114317  0.12334752  0.96967934     0.35900
C662        C  0.65427916  0.10171565  0.99391532    -0.20100
C663        C  0.69170856  0.11815678  0.01360812    -0.25400
C664        C  0.73349561  0.15874153  0.01095482     0.27300
H665        H  0.70748367  0.18270219  0.94930418     0.13100
N666        N  0.62492086  0.10533772  0.94822107    -0.82600
H667        H  0.68756143  0.10154760  0.03203208     0.17900
N668        N  0.77034904  0.17665350  0.03203589    -0.81200
H669        H  0.63530464  0.12569619  0.93209165     0.33600
H670        H  0.61750169  0.07171786  0.94260017     0.38100
H671        H  0.76116794  0.15497624  0.04773408     0.33500
H672        H  0.79693894  0.17540565  0.02539419     0.30200
H673        H  0.83288212  0.22050972  0.94176823     0.33500
H674        H  0.80591856  0.18022019  0.96305533     0.30200
H675        H  0.83187620  0.37435543  0.01650589     0.38100
H676        H  0.80253805  0.33301208  0.03676795     0.33600
C677        C  0.35578092  0.87435238  0.00826038    -0.20200
C678        C  0.31401932  0.85634733  0.99195158     0.36000
C679        C  0.27690623  0.81261347  0.99672948    -0.26200
C680        C  0.28104125  0.78665558  0.01734215     0.02500
C681        C  0.32160880  0.80610257  0.03479118     0.27300
C682        C  0.35849570  0.85015047  0.03025117    -0.25300
N683        N  0.31035167  0.88132499  0.96979931    -0.82700
H684        H  0.24544603  0.79737568  0.98345340     0.13100
C685        C  0.24485139  0.73691835  0.01809551     0.02400
N686        N  0.32621712  0.77950245  0.05581795    -0.81200
H687        H  0.39081077  0.86322273  0.04237651     0.17900
C688        C  0.24625771  0.70284488  0.00327775    -0.26100
C689        C  0.20976774  0.65609422  0.00030297     0.35900
C690        C  0.17151993  0.64303139  0.01287966    -0.20100
C691        C  0.17165227  0.67669133  0.02914595    -0.25400
C692        C  0.20761060  0.72384289  0.03143406     0.27300
H693        H  0.27514417  0.71331949  0.99308213     0.13100
N694        N  0.21065611  0.62219502  0.98383756    -0.82600
H695        H  0.14224967  0.66703234  0.03857765     0.17900
N696        N  0.20527690  0.75896634  0.04588870    -0.81200
H697        H  0.24089855  0.63758603  0.97572575     0.33600
H698        H  0.21022223  0.59621769  0.99564130     0.38100
H699        H  0.17497867  0.74383496  0.05392782     0.33500
H700        H  0.23149885  0.77227052  0.06153576     0.30200
H701        H  0.35871084  0.79825803  0.06641897     0.33500
H702        H  0.30367115  0.77538857  0.06865018     0.30200
H703        H  0.31566250  0.91335912  0.97686595     0.38100
H704        H  0.27754365  0.86306676  0.95956428     0.33600
C705        C  0.96996831  0.46173642  0.90078195    -0.20200
C706        C  0.95303936  0.48772760  0.88693994     0.36000
C707        C  0.94985893  0.48766263  0.85954170    -0.26200
C708        C  0.96233482  0.46143803  0.84540963     0.02500
C709        C  0.97547983  0.43223040  0.85906438     0.27300
C710        C  0.97930413  0.43278156  0.88659963    -0.25300
N711        N  0.94019483  0.51513307  0.90089001    -0.82700
H712        H  0.93942467  0.50983997  0.84925724     0.13100
C713        C  0.96552287  0.46834166  0.81685682     0.02400
N714        N  0.98599011  0.40302161  0.84490863    -0.81200
H715        H  0.99191036  0.41248716  0.89705159     0.17900
C716        C  0.00680658  0.48215662  0.80789375    -0.26100
C717        C  0.01278772  0.49151859  0.78161573     0.35900
C718        C  0.97688799  0.48868823  0.76360194    -0.20100
C719        C  0.93526057  0.47420226  0.77257538    -0.25400
C720        C  0.92914396  0.46377514  0.79885739     0.27300
H721        H  0.03492666  0.48611714  0.82164679     0.13100
N722        N  0.05539474  0.50388807  0.77337195    -0.82600
H723        H  0.90736002  0.47136745  0.75909636     0.17900
N724        N  0.88608955  0.44855403  0.80732546    -0.81200
H725        H  0.04943868  0.47635993  0.76076809     0.33600
H726        H  0.07849006  0.50611246  0.78916428     0.38100
H727        H  0.86289949  0.44702759  0.79181029     0.33500
H728        H  0.87328114  0.41421319  0.81317042     0.30200
H729        H  0.99522016  0.38383451  0.85769764     0.33500
H730        H  0.95632449  0.37852723  0.83304474     0.30200
H731        H  0.91277756  0.49177743  0.91033038     0.38100
H732        H  0.92862599  0.53231446  0.88796536     0.33600
C733        C  0.85859800  0.83820384  0.99891404    -0.20200
C734        C  0.83113872  0.84212600  0.01546318     0.36000
C735        C  0.78660888  0.80404166  0.01622218    -0.26200
C736        C  0.76925750  0.76159523  0.00141470     0.02500
C737        C  0.79717010  0.75719078  0.98552222     0.27300
C738        C  0.84113675  0.79552255  0.98425073    -0.25300
N739        N  0.84773048  0.88511362  0.03069744    -0.82700
H740        H  0.76516934  0.80747520  0.02841047     0.13100
C741        C  0.72224298  0.72168589  0.00314337     0.02400
N742        N  0.78087695  0.71366228  0.97086711    -0.81200
H743        H  0.86214537  0.79190396  0.97178645     0.17900
C744        C  0.69066074  0.70169975  0.98042780    -0.26100
C745        C  0.64639974  0.66315040  0.98124319     0.35900
C746        C  0.63292852  0.64442901  0.00555159    -0.20100
C747        C  0.66480024  0.66505098  0.02823881    -0.25400
C748        C  0.70907136  0.70298938  0.02727562     0.27300
H749        H  0.70073423  0.71623141  0.96188859     0.13100
N750        N  0.61530250  0.64365539  0.95748395    -0.82600
H751        H  0.65542889  0.65123869  0.04699803     0.17900
N752        N  0.74096437  0.72227010  0.05075145    -0.81200
H753        H  0.62958408  0.66352620  0.94176582     0.33600
H754        H  0.61027568  0.61039392  0.95351634     0.38100
H755        H  0.72597433  0.70488431  0.06693483     0.33500
H756        H  0.76709625  0.71593731  0.04907743     0.30200
H757        H  0.80547197  0.71619935  0.96008399     0.33500
H758        H  0.77552994  0.68796692  0.98421408     0.30200
H759        H  0.87316028  0.88840925  0.04520569     0.38100
H760        H  0.82227889  0.88315946  0.04045073     0.33600
C761        C  0.18976021  0.13207252  0.99674462    -0.20200
C762        C  0.19791622  0.15559610  0.97316172     0.36000
C763        C  0.24105476  0.19527552  0.97130754    -0.26200
C764        C  0.27637411  0.21167541  0.99224542     0.02500
C765        C  0.26903315  0.18686011  0.01516724     0.27300
C766        C  0.22602194  0.14763079  0.01718799    -0.25300
N767        N  0.16213858  0.14076690  0.95162513    -0.82700
H768        H  0.24682096  0.21440162  0.95369227     0.13100
C769        C  0.32014361  0.25623330  0.99060811     0.02400
N770        N  0.30522198  0.20211574  0.03650441    -0.81200
H771        H  0.22063935  0.12959998  0.03517232     0.17900
C772        C  0.33506797  0.29341584  0.00918209    -0.26100
C773        C  0.37623355  0.33614321  0.00871425     0.35900
C774        C  0.40376005  0.34178609  0.98931443    -0.20100
C775        C  0.38812640  0.30464345  0.97039633    -0.25400
C776        C  0.34679985  0.26203203  0.97088352     0.27300
H777        H  0.31404833  0.28919061  0.02400845     0.13100
N778        N  0.38961050  0.37379541  0.02769235    -0.82600
H779        H  0.40858941  0.30841894  0.95534236     0.17900
N780        N  0.33216031  0.22437000  0.95167562    -0.81200
H781        H  0.36625111  0.36331257  0.04095190     0.33600
H782        H  0.38865300  0.40093527  0.01774180     0.38100
H783        H  0.35542997  0.23433695  0.93839745     0.33500
H784        H  0.33183270  0.19639811  0.96136325     0.30200
H785        H  0.29424426  0.18044295  0.05208972     0.33500
H786        H  0.33057647  0.19827607  0.03008861     0.30200
H787        H  0.15486880  0.10821574  0.94406555     0.38100
H788        H  0.17307632  0.16370059  0.93655328     0.33600
C789        C  0.01327068  0.62579278  0.99642510    -0.20200
C790        C  0.02430196  0.65233674  0.02020591     0.36000
C791        C  0.02426810  0.69494853  0.02022242    -0.26200
C792        C  0.01223395  0.71122744  0.99713749     0.02500
C793        C  0.99789897  0.68280684  0.97379317     0.27300
C794        C  0.99951091  0.64123804  0.97358817    -0.25300
N795        N  0.03667652  0.63678296  0.04415421    -0.82700
H796        H  0.03475935  0.71618306  0.03828351     0.13100
C797        C  0.01469599  0.75785560  0.99745619     0.02400
N798        N  0.98169974  0.69629395  0.95031568    -0.81200
H799        H  0.99048020  0.62094404  0.95530774     0.17900
C800        C  0.03897944  0.79156091  0.97986665    -0.26100
C801        C  0.03920241  0.83417632  0.97816701     0.35900
C802        C  0.01569503  0.84424603  0.99490113    -0.20100
C803        C  0.99331563  0.81166962  0.01333745    -0.25400
C804        C  0.99180874  0.76837238  0.01445020     0.27300
H805        H  0.05712890  0.78411526  0.96699581     0.13100
N806        N  0.06260972  0.86694572  0.95922614    -0.82600
H807        H  0.97435530  0.81866696  0.02581763     0.17900
N808        N  0.96533836  0.73413555  0.03196847    -0.81200
H809        H  0.07800696  0.85435132  0.94832274     0.33600
H810        H  0.08869373  0.89793280  0.96939417     0.38100
H811        H  0.95032908  0.74701756  0.04299952     0.33500
H812        H  0.93884267  0.70494138  0.02063471     0.30200
H813        H  0.97224405  0.67164513  0.93487757     0.33500
H814        H  0.95226182  0.69565513  0.95350234     0.30200
H815        H  0.06688051  0.63779275  0.04281836     0.38100
H816        H  0.04341902  0.65996781  0.05985370     0.33600
C817        C  0.03129489  0.13365500  0.00575308    -0.20200
C818        C  0.02634712  0.15454595  0.02786618     0.36000
C819        C  0.02251059  0.19479875  0.02536930    -0.26200
C820        C  0.02340578  0.21524107  0.00135519     0.02500
C821        C  0.02755181  0.19395764  0.97909087     0.27300
C822        C  0.03067035  0.15328292  0.98152657    -0.25300
N823        N  0.02555619  0.13509716  0.05292695    -0.82700
H824        H  0.01919785  0.21073658  0.04242012     0.13100
C825        C  0.02147402  0.25945552  0.00054422     0.02400
N826        N  0.03005767  0.21319105  0.95386563    -0.81200
H827        H  0.03488052  0.13827472  0.96442180     0.17900
C828        C  0.05928839  0.30207685  0.01173485    -0.26100
C829        C  0.05816026  0.34403935  0.01263714     0.35900
C830        C  0.01856362  0.34367307  0.00192824    -0.20100
C831        C  0.98100659  0.30121681  0.99045564    -0.25400
C832        C  0.98180757  0.25913684  0.98987546     0.27300
H833        H  0.08963432  0.30239702  0.02012511     0.13100
N834        N  0.09684689  0.38687697  0.02462427    -0.82600
H835        H  0.95002961  0.30041887  0.98301920     0.17900
N836        N  0.94174661  0.21569374  0.97968731    -0.81200
H837        H  0.12326009  0.38137403  0.03158856     0.33600
H838        H  0.10844519  0.41091592  0.01010139     0.38100
H839        H  0.91495093  0.22108432  0.97362983     0.33500
H840        H  0.94845922  0.20438883  0.96301337     0.30200
H841        H  0.06172877  0.22294736  0.94866117     0.33500
H842        H  0.02878974  0.24384914  0.95433791     0.30200
H843        H  0.99656985  0.10147737  0.05160844     0.38100
H844        H  0.02230903  0.15476371  0.06715828     0.33600
C845        C  0.03720362  0.01266130  0.89973105    -0.20200
C846        C  0.03810889  0.05245395  0.88888154     0.36000
C847        C  0.03910116  0.05794869  0.86184460    -0.26200
C848        C  0.03932850  0.02473583  0.84548683     0.02500
C849        C  0.04103062  0.98660605  0.85645601     0.27300
C850        C  0.04008378  0.98105517  0.88337514    -0.25300
N851        N  0.03618700  0.08609436  0.90498573    -0.82700
H852        H  0.03765455  0.08714338  0.85324668     0.13100
C853        C  0.03109086  0.02624006  0.81669589     0.02400
N854        N  0.04202086  0.95268550  0.84004239    -0.81200
H855        H  0.04018996  0.95087793  0.89148826     0.17900
C856        C  0.06488092  0.03523530  0.80124691    -0.26100
C857        C  0.05603262  0.03279177  0.77372542     0.35900
C858        C  0.01253141  0.02149373  0.76155121    -0.20100
C859        C  0.97920878  0.01313124  0.77726852    -0.25400
C860        C  0.98782937  0.01486045  0.80455186     0.27300
H861        H  0.09787027  0.04318734  0.81070447     0.13100
N862        N  0.09057416  0.04050275  0.75825124    -0.82600
H863        H  0.94582147  0.00457081  0.76820113     0.17900
N864        N  0.95241113  0.00398326  0.82003926    -0.81200
H865        H  0.12057467  0.04877560  0.77022062     0.33600
H866        H  0.07960684  0.00877069  0.74793432     0.38100
H867        H  0.92259462  0.99657289  0.80816448     0.33500
H868        H  0.94515588  0.97317145  0.82932194     0.30200
H869        H  0.04358502  0.92691741  0.85115221     0.33500
H870        H  0.01137060  0.93548228  0.82748054     0.30200
H871        H  0.00433619  0.06922294  0.91131231     0.38100
H872        H  0.03829519  0.11371413  0.89407396     0.33600
C873        C  0.51243311  0.49437973  0.43309959    -0.20200
C874        C  0.51218516  0.53342339  0.44351956     0.36000
C875        C  0.51021771  0.53690563  0.47037932    -0.26200
C876        C  0.50773420  0.50195582  0.48679011     0.02500
C877        C  0.50821771  0.46330809  0.47657247     0.27300
C878        C  0.51060962  0.45993287  0.44996851    -0.25300
N879        N  0.51437781  0.56955075  0.42706529    -0.82700
H880        H  0.50947278  0.56634877  0.47847166     0.13100
C881        C  0.50117606  0.50384086  0.51431328     0.02400
N882        N  0.50587590  0.42741057  0.49332379    -0.81200
H883        H  0.51082632  0.42983141  0.44241729     0.17900
C884        C  0.45931441  0.47073091  0.52171487    -0.26100
C885        C  0.45142895  0.46900236  0.54771627     0.35900
C886        C  0.48696725  0.50063562  0.56707805    -0.20100
C887        C  0.52892028  0.53430741  0.55939270    -0.25400
C888        C  0.53629040  0.53627979  0.53316120     0.27300
H889        H  0.43249398  0.44609605  0.50695934     0.13100
N890        N  0.40746605  0.43499345  0.55430359    -0.82600
H891        H  0.55619306  0.55910322  0.57387256     0.17900
N892        N  0.57930336  0.57063533  0.52561593    -0.81200
H893        H  0.38657583  0.41256312  0.53810293     0.33600
H894        H  0.39219715  0.45342685  0.55918758     0.38100
H895        H  0.60146691  0.59213473  0.54179630     0.33500
H896        H  0.59371346  0.55258825  0.51883098     0.30200
H897        H  0.50616983  0.40101036  0.48276042     0.33500
H898        H  0.53522086  0.44287272  0.50698678     0.30200
H899        H  0.48360974  0.55497396  0.41465337     0.38100
H900        H  0.51669040  0.59696621  0.43814064     0.33600
C901        C  0.51899135  0.47318043  0.23415004    -0.20200
C902        C  0.49278345  0.48314007  0.21484257     0.36000
C903        C  0.49497887  0.47735789  0.18835838    -0.26200
C904        C  0.52243877  0.46167478  0.18059766     0.02500
C905        C  0.54785646  0.45071789  0.19960072     0.27300
C906        C  0.54573702  0.45634553  0.22621206    -0.25300
N907        N  0.46388311  0.49896127  0.22207165    -0.82700
H908        H  0.47575944  0.48598058  0.17358991     0.13100
C909        C  0.52710146  0.46140910  0.15255182     0.02400
N910        N  0.57605801  0.43450528  0.19175328    -0.81200
H911        H  0.56566798  0.44832294  0.24080007     0.17900
C912        C  0.56730349  0.49676302  0.14428883    -0.26100
C913        C  0.57051365  0.50393463  0.11766500     0.35900
C914        C  0.53308799  0.47428358  0.09891709    -0.20100
C915        C  0.49389516  0.43675592  0.10714522    -0.25400
C916        C  0.49024331  0.43053897  0.13389065     0.27300
H917        H  0.59536522  0.52053812  0.15874072     0.13100
N918        N  0.61102505  0.54231148  0.10958064    -0.82600
H919        H  0.46500713  0.41433945  0.09275908     0.17900
N920        N  0.44870119  0.39450512  0.14223526    -0.81200
H921        H  0.62508144  0.52793085  0.09883120     0.33600
H922        H  0.63508729  0.56124554  0.12575579     0.38100
H923        H  0.42461086  0.37525841  0.12612781     0.33500
H924        H  0.45558936  0.37105225  0.15244776     0.30200
H925        H  0.59279594  0.42821145  0.20808290     0.33500
H926        H  0.55481232  0.40215370  0.18128171     0.30200
H927        H  0.43807542  0.47133279  0.23079783     0.38100
H928        H  0.44800968  0.50585719  0.20556004     0.33600
C929        C  0.48772016  0.01861229  0.57074704    -0.20200
C930        C  0.44916013  0.99365285  0.55154812     0.36000
C931        C  0.45456668  0.99028580  0.52553276    -0.26200
C932        C  0.49751090  0.01145812  0.51770202     0.02500
C933        C  0.53631577  0.03718391  0.53638646     0.27300
C934        C  0.53105643  0.04048924  0.56277011    -0.25300
N935        N  0.40405043  0.97145589  0.55814591    -0.82700
H936        H  0.42467557  0.97091111  0.51118518     0.13100
C937        C  0.50015642  0.00548736  0.48972627     0.02400
N938        N  0.58070891  0.05951874  0.52853598    -0.81200
H939        H  0.56085635  0.06015432  0.57707839     0.17900
C940        C  0.51551952  0.04427727  0.47411835    -0.26100
C941        C  0.51360121  0.03870377  0.44692500     0.35900
C942        C  0.49698047  0.99346321  0.43531692    -0.20100
C943        C  0.48185937  0.95484133  0.45111699    -0.25400
C944        C  0.48292668  0.96029022  0.47807723     0.27300
H945        H  0.52798060  0.07880247  0.48312081     0.13100
N946        N  0.52965449  0.07891236  0.43130922    -0.82600
H947        H  0.46904703  0.92006477  0.44233793     0.17900
N948        N  0.46634481  0.92006182  0.49372769    -0.81200
H949        H  0.54294957  0.10973024  0.44307961     0.33600
H950        H  0.50159423  0.07557746  0.41919983     0.38100
H951        H  0.45427964  0.88926963  0.48217197     0.33500
H952        H  0.49378884  0.92412064  0.50679548     0.30200
H953        H  0.60563186  0.07720414  0.54457235     0.33500
H954        H  0.58544390  0.03305703  0.52182744     0.30200
H955        H  0.38691810  0.98568092  0.54725515     0.38100
H956        H  0.38747056  0.93559553  0.55269846     0.33600
C957        C  0.50515049  0.61859976  0.33003177    -0.20200
C958        C  0.53637909  0.65510523  0.34883951     0.36000
C959        C  0.53356176  0.69599617  0.35155927    -0.26200
C960        C  0.49882120  0.70026300  0.33693429     0.02500
C961        C  0.46607956  0.66246286  0.31955820     0.27300
C962        C  0.47027628  0.62317563  0.31584512    -0.25300
N963        N  0.57103522  0.65112605  0.36484589    -0.82700
H964        H  0.55858217  0.72468771  0.36517564     0.13100
C965        C  0.49707354  0.74443290  0.33916240     0.02400
N966        N  0.42787212  0.66361932  0.30608119    -0.81200
H967        H  0.44458824  0.59481787  0.30227525     0.17900
C968        C  0.49532944  0.76761054  0.31648952    -0.26100
C969        C  0.49371832  0.80919458  0.31728763     0.35900
C970        C  0.49380788  0.82874204  0.34151453    -0.20100
C971        C  0.49439360  0.80460400  0.36414162    -0.25400
C972        C  0.49621006  0.76310629  0.36324744     0.27300
H973        H  0.49613248  0.75353643  0.29794798     0.13100
N974        N  0.49401564  0.83246570  0.29362324    -0.82600
H975        H  0.49479414  0.81889893  0.38290991     0.17900
N976        N  0.49759398  0.74014743  0.38678943    -0.81200
H977        H  0.49658727  0.81504335  0.27787093     0.33600
H978        H  0.46263530  0.83007610  0.28955993     0.38100
H979        H  0.49734326  0.75853939  0.40292383     0.33500
H980        H  0.46790680  0.70706317  0.38527543     0.30200
H981        H  0.40671646  0.63311676  0.29401400     0.33500
H982        H  0.40875258  0.66366350  0.32014153     0.30200
H983        H  0.55503719  0.62453572  0.37756180     0.38100
H984        H  0.59239959  0.68190397  0.37666734     0.33600
C985        C  0.50318931  0.33381664  0.33518440    -0.20200
C986        C  0.47381297  0.29710851  0.34992700     0.36000
C987        C  0.47030137  0.25279158  0.34833267    -0.26200
C988        C  0.49570685  0.24447589  0.33234067     0.02500
C989        C  0.52430174  0.28096882  0.31726196     0.27300
C990        C  0.52721321  0.32479572  0.31855455    -0.25300
N991        N  0.44777814  0.30504233  0.36644187    -0.82700
H992        H  0.44778526  0.22466217  0.35962479     0.13100
C993        C  0.49177491  0.19740306  0.33083333     0.02400
N994        N  0.55150403  0.27380258  0.30129515    -0.81200
H995        H  0.55051667  0.35305078  0.30761900     0.17900
C996        C  0.47643367  0.17174210  0.30673174    -0.26100
C997        C  0.47393284  0.12833950  0.30374859     0.35900
C998        C  0.48598943  0.10882949  0.32568081    -0.20100
C999        C  0.50205232  0.13510972  0.34982442    -0.25400
C1000       C  0.50530596  0.17914558  0.35256611     0.27300
H1001       H  0.46655274  0.18597909  0.28998038     0.13100
N1002       N  0.45906606  0.10416624  0.27838476    -0.82600
H1003       H  0.51118695  0.12082317  0.36681980     0.17900
N1004       N  0.52245563  0.20546154  0.37731751    -0.81200
H1005       H  0.45060561  0.12265899  0.26461101     0.33600
H1006       H  0.48651472  0.10355667  0.27255619     0.38100
H1007       H  0.53089063  0.18729717  0.39133782     0.33500
H1008       H  0.55260506  0.23667335  0.37513352     0.30200
H1009       H  0.57084184  0.30398850  0.29148189     0.33500
H1010       H  0.57445130  0.26848892  0.31372368     0.30200
H1011       H  0.42549799  0.31187883  0.35442867     0.38100
H1012       H  0.42772266  0.27461155  0.37588758     0.33600
C1013       C  0.49654461  0.96300142  0.23576380    -0.20200
C1014       C  0.51739071  0.93966052  0.22674811     0.36000
C1015       C  0.52221658  0.93929412  0.20006347    -0.26200
C1016       C  0.50649228  0.96124732  0.18202781     0.02500
C1017       C  0.48557825  0.98427852  0.19077512     0.27300
C1018       C  0.48091127  0.98500653  0.21739197    -0.25300
N1019       N  0.53316769  0.91587737  0.24446379    -0.82700
H1020       H  0.53826234  0.92162799  0.19321491     0.13100
C1021       C  0.51240967  0.96042037  0.15400669     0.02400
N1022       N  0.46908963  0.00682549  0.17252348    -0.81200
H1023       H  0.46471500  0.00287402  0.22373281     0.17900
C1024       C  0.47470666  0.93193647  0.13548155    -0.26100
C1025       C  0.47805488  0.93327223  0.10854375     0.35900
C1026       C  0.52041431  0.96393189  0.09978741    -0.20100
C1027       C  0.55852173  0.99078778  0.11871314    -0.25400
C1028       C  0.55490202  0.98947943  0.14558957     0.27300
H1029       H  0.44213343  0.90948382  0.14207818     0.13100
N1030       N  0.43814934  0.90463095  0.09021394    -0.82600
H1031       H  0.59121395  0.01422484  0.11251765     0.17900
N1032       N  0.59404859  0.01842294  0.16436498    -0.81200
H1033       H  0.41073106  0.88216072  0.09990124     0.33600
H1034       H  0.42937174  0.92709803  0.08040816     0.38100
H1035       H  0.62285813  0.03761865  0.15510246     0.33500
H1036       H  0.58870503  0.04296709  0.17312997     0.30200
H1037       H  0.45413929  0.02182842  0.18193870     0.33500
H1038       H  0.49705833  0.03452285  0.16527001     0.30200
H1039       H  0.56094609  0.94151617  0.25701842     0.38100
H1040       H  0.54523671  0.89845387  0.23445053     0.33600
C1041       C  0.00475139  0.51181861  0.42999050    -0.20200
C1042       C  0.00466205  0.55054589  0.44095240     0.36000
C1043       C  0.00113300  0.55231934  0.46769103    -0.26200
C1044       C  0.99745077  0.51622928  0.48356103     0.02500
C1045       C  0.99689343  0.47737063  0.47257177     0.27300
C1046       C  0.00020343  0.47545505  0.44600483    -0.25300
N1047       N  0.00948595  0.58850154  0.42527978    -0.82700
H1048       H  0.00105387  0.58186048  0.47621495     0.13100
C1049       C  0.99322629  0.51854205  0.51159374     0.02400
N1050       N  0.99370514  0.44029686  0.48857906    -0.81200
H1051       H  0.00006515  0.44550349  0.43789076     0.17900
C1052       C  0.95509748  0.48179192  0.52101170    -0.26100
C1053       C  0.95089092  0.48030301  0.54762245     0.35900
C1054       C  0.98535134  0.51676028  0.56522076    -0.20100
C1055       C  0.02332155  0.55395428  0.55584160    -0.25400
C1056       C  0.02749696  0.55536221  0.52907818     0.27300
H1057       H  0.92877885  0.45371273  0.50750512     0.13100
N1058       N  0.91216307  0.44136354  0.55694024    -0.82600
H1059       H  0.04947992  0.58207411  0.56938007     0.17900
N1060       N  0.06643855  0.59368256  0.51962731    -0.81200
H1061       H  0.88991314  0.41768686  0.54147708     0.33600
H1062       H  0.92377873  0.42317858  0.56897432     0.38100
H1063       H  0.08819771  0.61807795  0.53493474     0.33500
H1064       H  0.08439966  0.58002335  0.51235494     0.30200
H1065       H  0.99340072  0.41407184  0.47747536     0.33500
H1066       H  0.02299224  0.45466373  0.50226174     0.30200
H1067       H  0.97984330  0.57553896  0.41199237     0.38100
H1068       H  0.01148315  0.61535110  0.43672990     0.33600
C1069       C  0.66291709  0.47362283  0.32871176    -0.20200
C1070       C  0.69163571  0.50120656  0.31047022     0.36000
C1071       C  0.73039446  0.49895350  0.30821806    -0.26200
C1072       C  0.74063514  0.46991466  0.32379034     0.02500
C1073       C  0.71133889  0.44137069  0.34128288     0.27300
C1074       C  0.67264413  0.44320407  0.34339764    -0.25300
N1075       N  0.68285815  0.53295710  0.29535417    -0.82700
H1076       H  0.75355958  0.52103844  0.29494862     0.13100
C1077       C  0.78420669  0.47277890  0.32342477     0.02400
N1078       N  0.72171595  0.41152883  0.35727683    -0.81200
H1079       H  0.65022640  0.42107071  0.35697362     0.17900
C1080       C  0.81643199  0.49153673  0.34576378    -0.26100
C1081       C  0.85956147  0.49786004  0.34607741     0.35900
C1082       C  0.87005657  0.48359263  0.32359238    -0.20100
C1083       C  0.83682271  0.46339856  0.30149778    -0.25400
C1084       C  0.79408451  0.45817982  0.30114488     0.27300
H1085       H  0.80832591  0.50292697  0.36273063     0.13100
N1086       N  0.89293722  0.52040975  0.36874119    -0.82600
H1087       H  0.84441741  0.45239249  0.28420190     0.17900
N1088       N  0.76085345  0.43863768  0.27823641    -0.81200
H1089       H  0.87889202  0.52683265  0.38373906     0.33600
H1090       H  0.91788213  0.55338440  0.36361106     0.38100
H1091       H  0.77370122  0.43014278  0.26337355     0.33500
H1092       H  0.73340424  0.40707589  0.28302841     0.30200
H1093       H  0.69707932  0.39342111  0.36954459     0.33500
H1094       H  0.72041114  0.38616423  0.34488616     0.30200
H1095       H  0.65409956  0.51262682  0.28174517     0.38100
H1096       H  0.70930439  0.55316717  0.28451517     0.33600
C1097       C  0.19722890  0.53543739  0.34620968    -0.20200
C1098       C  0.22265733  0.53348519  0.36938114     0.36000
C1099       C  0.25902410  0.52707317  0.36762552    -0.26200
C1100       C  0.27202808  0.52502281  0.34346157     0.02500
C1101       C  0.25072933  0.53312553  0.32070782     0.27300
C1102       C  0.21298523  0.53762484  0.32220201    -0.25300
N1103       N  0.21079681  0.53671749  0.39459268    -0.82700
H1104       H  0.27642467  0.52211009  0.38513114     0.13100
C1105       C  0.30601634  0.51136351  0.34216527     0.02400
N1106       N  0.26693766  0.53552377  0.29618023    -0.81200
H1107       H  0.19467651  0.54055600  0.30444387     0.17900
C1108       C  0.29342425  0.47030624  0.32737476    -0.26100
C1109       C  0.32469996  0.45622548  0.32525725     0.35900
C1110       C  0.36904003  0.48343703  0.33854002    -0.20100
C1111       C  0.38094538  0.52326962  0.35435801    -0.25400
C1112       C  0.34998943  0.53788614  0.35604622     0.27300
H1113       H  0.25918585  0.44952744  0.31723954     0.13100
N1114       N  0.31196757  0.41495964  0.30940680    -0.82600
H1115       H  0.41541313  0.54480150  0.36408533     0.17900
N1116       N  0.36338880  0.58028815  0.37102809    -0.81200
H1117       H  0.27811534  0.39899230  0.30087801     0.33600
H1118       H  0.31423039  0.39086627  0.32174880     0.38100
H1119       H  0.39700990  0.59579416  0.37991906     0.33500
H1120       H  0.36228212  0.60416939  0.35803792     0.30200
H1121       H  0.24771706  0.54187778  0.28133170     0.33500
H1122       H  0.29998631  0.56457642  0.29777873     0.30200
H1123       H  0.23250926  0.53395024  0.40945845     0.38100
H1124       H  0.21578995  0.57031097  0.39717521     0.33600
C1125       C  0.07248583  0.53619587  0.23975872    -0.20200
C1126       C  0.06778974  0.49694938  0.22627977     0.36000
C1127       C  0.06971637  0.49791901  0.19928119    -0.26200
C1128       C  0.07863373  0.53808692  0.18561993     0.02500
C1129       C  0.08736944  0.57875076  0.19965715     0.27300
C1130       C  0.08316876  0.57700158  0.22638798    -0.25300
N1131       N  0.05837993  0.45524594  0.23962697    -0.82700
H1132       H  0.06256684  0.46642274  0.18868562     0.13100
C1133       C  0.07494931  0.53546573  0.15649900     0.02400
N1134       N  0.09982665  0.62142658  0.18663968    -0.81200
H1135       H  0.08768059  0.60752035  0.23680318     0.17900
C1136       C  0.04777252  0.54973023  0.14154348    -0.26100
C1137       C  0.03883653  0.54262864  0.11417648     0.35900
C1138       C  0.05634938  0.51950864  0.10148011    -0.20100
C1139       C  0.08474498  0.50670991  0.11624636    -0.25400
C1140       C  0.09504632  0.51536209  0.14350284     0.27300
H1141       H  0.03172346  0.56460555  0.15131139     0.13100
N1142       N  0.01039619  0.55688570  0.09941210    -0.82600
H1143       H  0.09871332  0.48954377  0.10643278     0.17900
N1144       N  0.12543251  0.50334576  0.15805668    -0.81200
H1145       H  0.00075152  0.57391983  0.11165545     0.33600
H1146       H  0.98064757  0.52646815  0.09131346     0.38100
H1147       H  0.13720506  0.48882410  0.14561809     0.33500
H1148       H  0.15374010  0.53456114  0.16663190     0.30200
H1149       H  0.10494089  0.64800030  0.19969233     0.33500
H1150       H  0.13097537  0.63273585  0.18017299     0.30200
H1151       H  0.08741104  0.46350070  0.25259471     0.38100
H1152       H  0.05329919  0.42871178  0.22655906     0.33600
C1153       C  0.96482952  0.99570760  0.42548335    -0.20200
C1154       C  0.94235171  0.01883545  0.43203240     0.36000
C1155       C  0.93268585  0.01840901  0.45783120    -0.26200
C1156       C  0.94473653  0.99520900  0.47719753     0.02500
C1157       C  0.96658148  0.97172633  0.47057157     0.27300
C1158       C  0.97588789  0.97185064  0.44495481    -0.25300
N1159       N  0.92939765  0.04259809  0.41265435    -0.82700
H1160       H  0.91600206  0.03656108  0.46295864     0.13100
C1161       C  0.93831562  0.99869986  0.50492282     0.02400
N1162       N  0.98059569  0.94897715  0.49015863    -0.81200
H1163       H  0.99323234  0.95406499  0.44045355     0.17900
C1164       C  0.91323672  0.95753555  0.51800339    -0.26100
C1165       C  0.91452999  0.95893304  0.54538286     0.35900
C1166       C  0.94211501  0.00230958  0.55995378    -0.20100
C1167       C  0.96398613  0.04372487  0.54658019    -0.25400
C1168       C  0.96224671  0.04243834  0.51929021     0.27300
H1169       H  0.89437862  0.92397243  0.50691273     0.13100
N1170       N  0.89063585  0.91623265  0.55849011    -0.82600
H1171       H  0.98463702  0.07720293  0.55766969     0.17900
N1172       N  0.98674382  0.08522168  0.50630861    -0.81200
H1173       H  0.87340054  0.88723421  0.54502177     0.33600
H1174       H  0.86580569  0.91782642  0.56715141     0.38100
H1175       H  0.00215402  0.11439211  0.51962176     0.33500
H1176       H  0.01289614  0.08449036  0.49872389     0.30200
H1177       H  0.99593040  0.93297591  0.48212780     0.33500
H1178       H  0.00542576  0.97504100  0.50388779     0.30200
H1179       H  0.90447096  0.01689668  0.39881583     0.38100
H1180       H  0.91425478  0.05870006  0.42080385     0.33600
C1181       C  0.00357225  0.85721640  0.33916157    -0.20200
C1182       C  0.01763532  0.84525523  0.31746353     0.36000
C1183       C  0.01767091  0.80294451  0.31654349    -0.26200
C1184       C  0.00477267  0.77217519  0.33687666     0.02500
C1185       C  0.99015845  0.78350750  0.35840530     0.27300
C1186       C  0.98975613  0.82578692  0.35933808    -0.25300
N1187       N  0.03415768  0.87710668  0.29699925    -0.82700
H1188       H  0.02926808  0.79449825  0.30011137     0.13100
C1189       C  0.00628283  0.72807226  0.33474647     0.02400
N1190       N  0.97605124  0.75222895  0.37928656    -0.81200
H1191       H  0.97949382  0.83473752  0.37621506     0.17900
C1192       C  0.03321084  0.71894815  0.35369791    -0.26100
C1193       C  0.03658390  0.67844018  0.35129438     0.35900
C1194       C  0.01360694  0.64696064  0.32894322    -0.20100
C1195       C  0.98669341  0.65664036  0.31015780    -0.25400
C1196       C  0.98218350  0.69594394  0.31303338     0.27300
H1197       H  0.05179056  0.74364914  0.37041575     0.13100
N1198       N  0.06364642  0.66981822  0.37130681    -0.82600
H1199       H  0.96769155  0.63257277  0.29324995     0.17900
N1200       N  0.95255811  0.70307166  0.29406995    -0.81200
H1201       H  0.08037306  0.69772703  0.38547695     0.33600
H1202       H  0.04147409  0.64052626  0.38079637     0.38100
H1203       H  0.93721961  0.67640172  0.27918766     0.33500
H1204       H  0.92646580  0.70045583  0.30345356     0.30200
H1205       H  0.96654984  0.76571506  0.39373484     0.33500
H1206       H  0.94705678  0.72070100  0.37166418     0.30200
H1207       H  0.06466462  0.90678652  0.30498571     0.38100
H1208       H  0.04202826  0.86251726  0.28224154     0.33600
C1209       C  0.00776851  0.14516464  0.32259342    -0.20200
C1210       C  0.02367842  0.17178976  0.34682033     0.36000
C1211       C  0.02679345  0.21599932  0.34855470    -0.26200
C1212       C  0.01498158  0.23505393  0.32666914     0.02500
C1213       C  0.99969739  0.20898168  0.30248267     0.27300
C1214       C  0.99653154  0.16494367  0.30069066    -0.25300
N1215       N  0.03658363  0.15408633  0.36966066    -0.82700
H1216       H  0.03905772  0.23608684  0.36712214     0.13100
C1217       C  0.01978744  0.28270937  0.32912745     0.02400
N1218       N  0.98648375  0.22691280  0.27982850    -0.81200
H1219       H  0.98388721  0.14538952  0.28196049     0.17900
C1220       C  0.04880323  0.31931784  0.31440632    -0.26100
C1221       C  0.05618893  0.36520514  0.31707919     0.35900
C1222       C  0.03320702  0.37493397  0.33445794    -0.20100
C1223       C  0.00357561  0.33803326  0.34887003    -0.25400
C1224       C  0.99646104  0.29223121  0.34629502     0.27300
H1225       H  0.06710001  0.31241764  0.30138201     0.13100
N1226       N  0.08867003  0.40241705  0.30311449    -0.82600
H1227       H  0.98614857  0.34510793  0.36244510     0.17900
N1228       N  0.96565630  0.25533462  0.36111614    -0.81200
H1229       H  0.10247353  0.38954548  0.29110875     0.33600
H1230       H  0.11550464  0.42640450  0.31684634     0.38100
H1231       H  0.95134734  0.26793455  0.37291111     0.33500
H1232       H  0.93899370  0.22982305  0.34790087     0.30200
H1233       H  0.97614019  0.20378893  0.26348615     0.33500
H1234       H  0.95819974  0.22842731  0.28321676     0.30200
H1235       H  0.06519931  0.15297793  0.36656584     0.38100
H1236       H  0.04648268  0.17726978  0.38591930     0.33600
C1237       C  0.64244529  0.97329988  0.32815626    -0.20200
C1238       C  0.66798746  0.00070723  0.30874628     0.36000
C1239       C  0.70703889  0.00037706  0.30485210    -0.26200
C1240       C  0.72015811  0.97274265  0.31961538     0.02500
C1241       C  0.69374475  0.94399490  0.33831735     0.27300
C1242       C  0.65528014  0.94471372  0.34235339    -0.25300
N1243       N  0.65569903  0.03040027  0.29404351    -0.82700
H1244       H  0.72801148  0.02257823  0.29072723     0.13100
C1245       C  0.76415149  0.97849194  0.31735646     0.02400
N1246       N  0.70485113  0.91385385  0.35354401    -0.81200
H1247       H  0.63521571  0.92259967  0.35683381     0.17900
C1248       C  0.80092656  0.00887108  0.33573932    -0.26100
C1249       C  0.84341664  0.01431081  0.33529684     0.35900
C1250       C  0.84840083  0.98747550  0.31656537    -0.20100
C1251       C  0.81163335  0.95778834  0.29774792    -0.25400
C1252       C  0.76922576  0.95309121  0.29796983     0.27300
H1253       H  0.79636933  0.02857530  0.35033171     0.13100
N1254       N  0.88174195  0.04788853  0.35324775    -0.82600
H1255       H  0.81595707  0.93803612  0.28307973     0.17900
N1256       N  0.73141397  0.92289572  0.27873748    -0.81200
H1257       H  0.87208410  0.06454667  0.36573925     0.33600
H1258       H  0.90463731  0.07407719  0.34235710     0.38100
H1259       H  0.74106527  0.90713191  0.26566075     0.33500
H1260       H  0.70692216  0.89572467  0.28840883     0.30200
H1261       H  0.71331202  0.92674056  0.37300643     0.33500
H1262       H  0.73297209  0.91418725  0.34818512     0.30200
H1263       H  0.62616008  0.00859278  0.28131023     0.38100
H1264       H  0.68032516  0.05102837  0.28220788     0.33600
C1265       C  0.34018094  0.96079223  0.34503543    -0.20200
C1266       C  0.34639483  0.99938969  0.36007450     0.36000
C1267       C  0.30901439  0.00397700  0.36208719    -0.26200
C1268       C  0.26570991  0.97068885  0.34967023     0.02500
C1269       C  0.25903101  0.93048997  0.33619863     0.27300
C1270       C  0.29655089  0.92631708  0.33368121    -0.25300
N1271       N  0.39089920  0.03529282  0.37187126    -0.82700
H1272       H  0.31411293  0.03500623  0.37222649     0.13100
C1273       C  0.22860869  0.98042924  0.34922360     0.02400
N1274       N  0.21433844  0.89468183  0.32469156    -0.81200
H1275       H  0.29196539  0.89667438  0.32229461     0.17900
C1276       C  0.20518870  0.98045935  0.32511619    -0.26100
C1277       C  0.17001335  0.98989739  0.32356515     0.35900
C1278       C  0.15843797  0.00036608  0.34683686    -0.20100
C1279       C  0.18345906  0.00212681  0.37087809    -0.25400
C1280       C  0.21784527  0.99162355  0.37234450     0.27300
H1281       H  0.21445514  0.97300807  0.30734323     0.13100
N1282       N  0.14544293  0.98739721  0.29851873    -0.82600
H1283       H  0.17509857  0.00997993  0.38886787     0.17900
N1284       N  0.24114185  0.99118488  0.39726527    -0.81200
H1285       H  0.15650081  0.97635850  0.28375149     0.33600
H1286       H  0.15311966  0.02150343  0.29460551     0.38100
H1287       H  0.22921329  0.00028111  0.41238563     0.33500
H1288       H  0.23340692  0.95666171  0.39982291     0.30200
H1289       H  0.21537366  0.86764789  0.31532970     0.33500
H1290       H  0.19496128  0.87978485  0.33985519     0.30200
H1291       H  0.40954395  0.05282208  0.35682056     0.38100
H1292       H  0.38922840  0.06049043  0.38275078     0.33600
C1293       C  0.03653500  0.99848694  0.23686262    -0.20200
C1294       C  0.05349806  0.03714732  0.22087803     0.36000
C1295       C  0.05066810  0.02943641  0.19387717    -0.26200
C1296       C  0.03100239  0.98387145  0.18234207     0.02500
C1297       C  0.01679964  0.94552233  0.19851444     0.27300
C1298       C  0.02015957  0.95328837  0.22567676    -0.25300
N1299       N  0.07274860  0.08405100  0.23208655    -0.82700
H1300       H  0.06260165  0.05904045  0.18156618     0.13100
C1301       C  0.02278797  0.97713338  0.15323942     0.02400
N1302       N  0.99716856  0.89867374  0.18718434    -0.81200
H1303       H  0.00725041  0.92356289  0.23789202     0.17900
C1304       C  0.04169316  0.95602308  0.14020267    -0.26100
C1305       C  0.03700154  0.95281774  0.11265541     0.35900
C1306       C  0.01407550  0.97230568  0.09798610    -0.20100
C1307       C  0.99361203  0.99147844  0.11102276    -0.25400
C1308       C  0.99683393  0.99312385  0.13837938     0.27300
H1309       H  0.06119681  0.94324397  0.15154782     0.13100
N1310       N  0.05756663  0.93232174  0.09962801    -0.82600
H1311       H  0.97574634  0.00613055  0.09975716     0.17900
N1312       N  0.97426987  0.01152685  0.15122782    -0.81200
H1313       H  0.07424322  0.92086413  0.11322818     0.33600
H1314       H  0.03145361  0.90228152  0.08871923     0.38100
H1315       H  0.95652293  0.02170612  0.13756744     0.33500
H1316       H  0.95005892  0.98417400  0.16095743     0.30200
H1317       H  0.98834184  0.87441710  0.20167941     0.33500
H1318       H  0.96700799  0.89028685  0.17535974     0.30200
H1319       H  0.10178573  0.09185824  0.24492134     0.38100
H1320       H  0.08341340  0.10850356  0.21771571     0.33600
loop_ 
_geom_bond_atom_site_label_1 
_geom_bond_atom_site_label_2 
_geom_bond_distance 
_geom_bond_site_symmetry_2 
_ccdc_geom_bond_type 
O1           Ni7   1.926   1_655  S
O1           C22   1.272       .  A
O2          Ni25   1.926       .  S
O2           C11   1.272   1_565  A
O3           Ni7   1.897   1_545  S
O3          Ni25   1.906   1_545  S
O3          Ni19   1.911   1_455  S
O3           H26   0.966       .  S
C4           O21   1.278       .  A
C4           O13   1.278       .  A
C4         C1250   1.462       .  S
O5          Ni24   1.924   1_455  S
O5           C11   1.272       .  A
O6          Ni24   1.917       .  S
O6            C8   1.272       .  A
Ni7          O10   1.918       .  S
Ni7          O12   1.909       .  S
C8           O18   1.281   1_655  A
C8         C1209   1.518   1_655  S
O9          Ni25   1.914   1_545  S
O9           C15   1.278       .  A
O10          C15   1.280   1_565  A
C11        C1293   1.487   1_545  S
O12          C14   1.268       .  A
O13         Ni24   1.914   1_565  S
C14          O20   1.277       .  A
C14        C1181   1.499       .  S
C15        C1278   1.487       .  S
H16          O17   0.967       .  S
O17         Ni25   1.906   1_655  S
O17         Ni19   1.897   1_565  S
O17         Ni24   1.892   1_565  S
O18         Ni19   1.958   1_455  S
Ni19         O23   1.929       .  S
Ni19         O21   1.905   1_545  S
O20         Ni25   1.942       .  S
C22          O23   1.273   1_565  A
C22        C1153   1.500       .  S
O27         Ni33   1.921       .  S
O27          C48   1.270       .  A
O28         Ni51   1.915       .  S
O28          C37   1.271       .  A
O29         Ni33   1.897       .  S
O29         Ni51   1.904       .  S
O29         Ni45   1.905       .  S
O29          H52   0.967       .  S
C30          O47   1.278       .  A
C30          O39   1.279       .  A
C30        C1082   1.482       .  S
O31         Ni50   1.927   1_455  S
O31          C37   1.272       .  A
O32         Ni50   1.908       .  S
O32          C34   1.270   1_655  A
Ni33         O36   1.917       .  S
Ni33         O38   1.912       .  S
C34          O44   1.278       .  A
C34        C1194   1.508       .  S
O35         Ni51   1.918       .  S
O35          C41   1.279       .  A
O36          C41   1.277       .  A
C37        C1125   1.484       .  S
O38          C40   1.267       .  A
O39         Ni50   1.916       .  S
C40          O46   1.279       .  A
C40        C1222   1.504       .  S
C41        C1097   1.484       .  S
H42          O43   0.966   1_655  S
O43         Ni51   1.912       .  S
O43         Ni45   1.899       .  S
O43         Ni50   1.893   1_455  S
O44         Ni45   1.950       .  S
Ni45         O49   1.915       .  S
Ni45         O47   1.915   1_455  S
O46         Ni51   1.960       .  S
C48          O49   1.269       .  A
C48        C1041   1.487       .  S
O53         Ni59   1.929       .  S
O53          C74   1.272       .  A
O54         Ni77   1.923       .  S
O54          C63   1.273       .  A
O55         Ni59   1.896       .  S
O55         Ni77   1.902       .  S
O55         Ni71   1.898       .  S
O55          H78   0.967   1_565  S
C56          O73   1.275       .  A
C56          O65   1.277       .  A
C56        C1265   1.468       .  S
O57         Ni76   1.937       .  S
O57          C63   1.275       .  A
O58         Ni76   1.915   1_545  S
O58          C60   1.271       .  A
Ni59         O62   1.918       .  S
Ni59         O64   1.909       .  S
C60          O70   1.280       .  A
C60         C998   1.508       .  S
O61         Ni77   1.904       .  S
O61          C67   1.276       .  A
O62          C67   1.279       .  A
C63        C1013   1.505       .  S
O64          C66   1.269       .  A
O65         Ni76   1.918       .  S
C66          O72   1.278       .  A
C66         C970   1.510       .  S
C67        C1237   1.469       .  S
H68          O69   0.967       .  S
O69         Ni77   1.907       .  S
O69         Ni71   1.909       .  S
O69         Ni76   1.897       .  S
O70         Ni71   1.950   1_545  S
Ni71         O75   1.919   1_565  S
Ni71         O73   1.910       .  S
O72         Ni77   1.953       .  S
C74          O75   1.272   1_565  A
C74         C942   1.486       .  S
O79         Ni85   1.922       .  S
O79         C100   1.271       .  A
O80        Ni103   1.916       .  S
O80          C89   1.269       .  A
O81         Ni85   1.900       .  S
O81        Ni103   1.907       .  S
O81         Ni97   1.905       .  S
O81         H104   0.966       .  S
C82          O99   1.277       .  A
C82          O91   1.278       .  A
C82        C1110   1.469       .  S
O83        Ni102   1.924       .  S
O83          C89   1.271       .  A
O84        Ni102   1.910       .  S
O84          C86   1.272       .  A
Ni85         O88   1.919       .  S
Ni85         O90   1.912       .  S
C86          O96   1.279       .  A
C86         C957   1.508       .  S
O87        Ni103   1.908       .  S
O87          C93   1.275       .  A
O88          C93   1.278       .  A
C89         C901   1.489       .  S
O90          C92   1.267       .  A
O91        Ni102   1.917       .  S
C92          O98   1.275       .  A
C92         C985   1.493       .  S
C93        C1069   1.476       .  S
H94          O95   0.966       .  S
O95        Ni103   1.911       .  S
O95         Ni97   1.903       .  S
O95        Ni102   1.892       .  S
O96         Ni97   1.952       .  S
Ni97        O101   1.914       .  S
Ni97         O99   1.914       .  S
O98        Ni103   1.949       .  S
C100        O101   1.270       .  A
C100        C873   1.490       .  S
O105       Ni111   1.934   1_455  S
O105        C126   1.274   1_565  A
O106       Ni129   1.932   1_455  S
O106        C115   1.273       .  A
O107       Ni111   1.907       .  S
O107       Ni129   1.915   1_556  S
O107       Ni123   1.919   1_665  S
O107        H130   0.967       .  S
C108        O125   1.279   1_554  A
C108        O117   1.278       .  A
C108        C761   1.496   1_554  S
O109       Ni128   1.927       .  S
O109        C115   1.270   1_545  A
O110       Ni128   1.914       .  S
O110        C112   1.270       .  A
Ni111       O114   1.929       .  S
Ni111       O116   1.910       .  S
C112        O122   1.280   1_554  A
C112        C817   1.508       .  S
O113       Ni129   1.933       .  S
O113        C119   1.282   1_554  A
O114        C119   1.279       .  A
C115       C1306   1.484       .  S
O116        C118   1.269   1_655  A
O117       Ni128   1.923       .  S
C118        O124   1.277   1_556  A
C118        C802   1.495       .  S
C119        C733   1.493       .  S
H120        O121   0.967   1_565  S
O121       Ni129   1.924   1_445  S
O121       Ni123   1.909   1_554  S
O121       Ni128   1.905       .  S
O122       Ni123   1.954       .  S
Ni123       O127   1.917       .  S
Ni123       O125   1.931       .  S
O124       Ni129   1.949   1_455  S
C126        O127   1.271       .  A
C126        C845   1.493       .  S
O131       Ni137   1.922       .  S
O131        C152   1.270   1_455  A
O132       Ni155   1.915       .  S
O132        C141   1.271       .  A
O133       Ni137   1.892       .  S
O133       Ni155   1.906   1_556  S
O133       Ni149   1.923   1_455  S
O133        H156   0.967       .  S
C134        O151   1.282       .  A
C134        O143   1.282   1_556  A
C134        C649   1.481       .  S
O135       Ni154   1.940   1_455  S
O135        C141   1.275       .  A
O136       Ni154   1.914   1_455  S
O136        C138   1.269       .  A
Ni137       O140   1.919       .  S
Ni137       O142   1.913       .  S
C138        O148   1.279   1_554  A
C138        C830   1.494       .  S
O139       Ni155   1.936       .  S
O139        C145   1.280       .  A
O140        C145   1.278   1_556  A
C141       C1138   1.483       .  S
O142        C144   1.270       .  A
O143       Ni154   1.934       .  S
C144        O150   1.280   1_556  A
C144        C789   1.500       .  S
C145        C690   1.483       .  S
H146        O147   0.967       .  S
O147       Ni155   1.914   1_655  S
O147       Ni149   1.912   1_554  S
O147       Ni154   1.897       .  S
O148       Ni149   1.957   1_455  S
Ni149       O153   1.940       .  S
Ni149       O151   1.929       .  S
O150       Ni155   1.953       .  S
C152        O153   1.277       .  A
C152        C705   1.493       .  S
O157       Ni163   1.936       .  S
O157        C178   1.274   1_545  A
O158       Ni181   1.936       .  S
O158        C167   1.273       .  A
O159       Ni163   1.903       .  S
O159       Ni181   1.911   1_554  S
O159       Ni175   1.909   1_545  S
O159        H182   0.966       .  S
C160        O177   1.281   1_556  A
C160        O169   1.279       .  A
C160        C578   1.474       .  S
O161       Ni180   1.911       .  S
O161        C167   1.266   1_565  A
O162       Ni180   1.905       .  S
O162        C164   1.267       .  A
Ni163       O166   1.930       .  S
Ni163       O168   1.915       .  S
C164        O174   1.269   1_556  A
C164        C677   1.477   1_556  S
O165       Ni181   1.902       .  S
O165        C171   1.277   1_556  A
O166        C171   1.279       .  A
C167        C634   1.498       .  S
O168        C170   1.272       .  A
O169       Ni180   1.906       .  S
C170        O176   1.272   1_554  A
C170        C662   1.498   1_554  S
C171        C593   1.483       .  S
H172        O173   0.966       .  S
O173       Ni181   1.911   1_565  S
O173       Ni175   1.901   1_556  S
O173       Ni180   1.899       .  S
O174       Ni175   1.920       .  S
Ni175       O179   1.919       .  S
Ni175       O177   1.923       .  S
O176       Ni181   1.937       .  S
C178        O179   1.271       .  A
C178       C1026   1.504       .  S
O183       Ni189   1.928       .  S
O183        C204   1.270       .  A
O184       Ni207   1.916       .  S
O184        C193   1.268       .  A
O185       Ni189   1.903       .  S
O185       Ni207   1.910   1_554  S
O185       Ni201   1.899       .  S
O185        H208   0.965       .  S
C186        O203   1.275   1_556  A
C186        O195   1.276       .  A
C186        C606   1.478   1_556  S
O187       Ni206   1.922       .  S
O187        C193   1.269       .  A
O188       Ni206   1.911       .  S
O188        C190   1.269       .  A
Ni189       O192   1.920       .  S
Ni189       O194   1.906       .  S
C190        O200   1.271   1_556  A
C190        C774   1.495       .  S
O191       Ni207   1.891       .  S
O191        C197   1.270       .  A
O192        C197   1.276   1_554  A
C193        C537   1.493       .  S
O194        C196   1.269       .  A
O195       Ni206   1.912       .  S
C196        O202   1.274   1_554  A
C196        C746   1.501       .  S
C197        C565   1.458       .  S
H198        O199   0.964       .  S
O199       Ni207   1.901       .  S
O199       Ni201   1.903   1_556  S
O199       Ni206   1.901       .  S
O200       Ni201   1.924       .  S
Ni201       O205   1.914       .  S
Ni201       O203   1.910       .  S
O202       Ni207   1.942       .  S
C204        O205   1.268       .  A
C204        C914   1.479       .  S
O209       Ni215   1.930   1_655  S
O209        C230   1.273       .  A
O210       Ni233   1.923       .  S
O210        C219   1.272   1_455  A
O211       Ni215   1.898   1_665  S
O211       Ni233   1.908   1_665  S
O211       Ni227   1.924   1_565  S
O211        H234   0.966       .  S
C212        O229   1.283       .  A
C212        O221   1.279       .  A
C212        C481   1.486       .  S
O213       Ni232   1.923   1_565  S
O213        C219   1.273   1_565  A
O214       Ni232   1.910   1_565  S
O214        C216   1.270       .  A
Ni215       O218   1.928       .  S
Ni215       O220   1.914       .  S
C216        O226   1.285       .  A
C216        C425   1.510       .  S
O217       Ni233   1.926       .  S
O217        C223   1.281       .  A
O218        C223   1.281       .  A
C219        C858   1.491   1_655  S
O220        C222   1.269       .  A
O221       Ni232   1.917       .  S
C222        O228   1.277       .  A
C222        C453   1.496       .  S
C223        C509   1.484       .  S
H224        O225   0.966       .  S
O225       Ni233   1.919   1_655  S
O225       Ni227   1.905       .  S
O225       Ni232   1.884       .  S
O226       Ni227   1.974   1_565  S
Ni227       O231   1.929   1_545  S
Ni227       O229   1.939       .  S
O228       Ni233   1.952       .  S
C230        O231   1.275   1_545  A
C230       C1166   1.489       .  S
O235       Ni241   1.933       .  S
O235        C256   1.275   1_455  A
O236       Ni259   1.915       .  S
O236        C245   1.271   1_455  A
O237       Ni241   1.893       .  S
O237       Ni259   1.906       .  S
O237       Ni253   1.917   1_455  S
O237        H260   0.966   1_455  S
C238        O255   1.280       .  A
C238        O247   1.277       .  A
C238        C326   1.479       .  S
O239       Ni258   1.920       .  S
O239        C245   1.270       .  A
O240       Ni258   1.905       .  S
O240        C242   1.269       .  A
Ni241       O244   1.925       .  S
Ni241       O246   1.920       .  S
C242        O252   1.286       .  A
C242        C369   1.524       .  S
O243       Ni259   1.923       .  S
O243        C249   1.277       .  A
O244        C249   1.279       .  A
C245       C1054   1.476       .  S
O246        C248   1.272       .  A
O247       Ni258   1.912       .  S
C248        O254   1.281       .  A
C248        C410   1.519       .  S
C249        C341   1.474       .  S
H250        O251   0.967       .  S
O251       Ni259   1.914   1_655  S
O251       Ni253   1.902       .  S
O251       Ni258   1.890       .  S
O252       Ni253   1.975       .  S
Ni253       O257   1.926       .  S
Ni253       O255   1.918       .  S
O254       Ni259   1.961       .  S
C256        O257   1.276       .  A
C256        C718   1.504       .  S
O261       Ni267   1.918       .  S
O261        C282   1.267       .  A
O262       Ni285   1.915   1_565  S
O262        C271   1.271   1_565  A
O263       Ni267   1.895       .  S
O263       Ni285   1.899       .  S
O263       Ni279   1.908       .  S
O263        H286   0.966       .  S
C264        O281   1.272   1_545  A
C264        O273   1.275       .  A
C264        C494   1.492       .  S
O265       Ni284   1.929       .  S
O265        C271   1.272       .  A
O266       Ni284   1.900       .  S
O266        C268   1.269       .  A
Ni267       O270   1.916       .  S
Ni267       O272   1.899   1_545  S
C268        O278   1.277       .  A
C268        C313   1.477       .  S
O269       Ni285   1.929       .  S
O269        C275   1.279       .  A
O270        C275   1.276       .  A
C271        C621   1.485       .  S
O272        C274   1.268       .  A
O273       Ni284   1.932       .  S
C274        O280   1.276       .  A
C274        C354   1.495       .  S
C275        C522   1.488       .  S
H276        O277   0.966       .  S
O277       Ni285   1.933   1_565  S
O277       Ni279   1.924   1_565  S
O277       Ni284   1.912   1_565  S
O278       Ni279   1.938       .  S
Ni279       O283   1.924       .  S
Ni279       O281   1.917   1_545  S
O280       Ni285   1.937   1_565  S
C282        O283   1.270       .  A
C282        C929   1.495       .  S
O287       Ni293   1.927       .  S
O287        C308   1.272       .  A
O288       Ni311   1.915       .  S
O288        C297   1.274       .  A
O289       Ni293   1.894       .  S
O289       Ni311   1.898       .  S
O289       Ni305   1.942       .  S
O289        H312   0.966       .  S
C290        O307   1.290       .  A
C290        O299   1.281       .  A
C290        C382   1.510       .  S
O291       Ni310   1.924       .  S
O291        C297   1.272       .  A
O292       Ni310   1.920       .  S
O292        C294   1.271       .  A
Ni293       O296   1.936       .  S
Ni293       O298   1.910       .  S
C294        O304   1.275       .  A
C294        C438   1.506       .  S
O295       Ni311   1.956       .  S
O295        C301   1.287       .  A
O296        C301   1.281       .  A
C297        C550   1.484       .  S
O298        C300   1.271       .  A
O299       Ni310   1.935       .  S
C300        O306   1.280       .  A
C300        C466   1.510       .  S
C301        C397   1.506       .  S
H302        O303   0.966       .  S
O303       Ni311   1.944       .  S
O303       Ni305   1.895       .  S
O303       Ni310   1.898       .  S
O304       Ni305   1.942       .  S
Ni305       O309   1.910       .  S
Ni305       O307   1.965       .  S
O306       Ni311   1.954       .  S
C308        O309   1.271       .  A
C308        C886   1.491       .  S
C313        C314   1.414       .  A
C313        C318   1.404       .  A
C314        C315   1.398       .  A
C314        N319   1.433       .  S
C315        C316   1.398       .  A
C315        H320   1.084       .  S
C316        C321   1.478       .  S
C316        C317   1.411       .  A
C317        C318   1.405       .  A
C317        N322   1.438       .  S
C318        H323   1.084       .  S
N319        H339   1.046       .  S
N319        H340   1.045       .  S
C321        C324   1.400       .  A
C321        C328   1.409       .  A
N322        H337   1.046       .  S
N322        H338   1.045       .  S
C324        C325   1.400       .  A
C324        H329   1.084       .  S
C325        C326   1.415       .  A
C325        N330   1.439       .  S
C326        C327   1.406       .  A
C327        C328   1.405       .  A
C327        H331   1.084       .  S
C328        N332   1.438       .  S
N330        H333   1.045       .  S
N330        H334   1.046       .  S
N332        H335   1.046       .  S
N332        H336   1.046       .  S
C341        C342   1.409       .  A
C341        C346   1.404       .  A
C342        C343   1.406       .  A
C342        N347   1.437       .  S
C343        C344   1.402       .  A
C343        H348   1.084       .  S
C344        C349   1.478       .  S
C344        C345   1.408       .  A
C345        C346   1.406       .  A
C345        N350   1.437       .  S
C346        H351   1.084       .  S
N347        H367   1.046       .  S
N347        H368   1.046       .  S
C349        C352   1.401       .  A
C349        C356   1.403       .  A
N350        H365   1.046       .  S
N350        H366   1.045       .  S
C352        C353   1.408       .  A
C352        H357   1.084       .  S
C353        C354   1.417       .  A
C353        N358   1.437       .  S
C354        C355   1.414       .  A
C355        C356   1.404       .  A
C355        H359   1.083       .  S
C356        N360   1.438       .  S
N358        H361   1.046       .  S
N358        H362   1.046       .  S
N360        H363   1.046       .  S
N360        H364   1.045       .  S
C369        C370   1.429       .  A
C369        C374   1.411       .  A
C370        C371   1.414       .  A
C370        N375   1.439       .  S
C371        C372   1.403       .  A
C371        H376   1.083       .  S
C372        C377   1.520       .  S
C372        C373   1.419       .  A
C373        C374   1.423       .  A
C373        N378   1.437       .  S
C374        H379   1.083       .  S
N375        H395   1.046       .  S
N375        H396   1.046       .  S
C377        C380   1.409       .  A
C377        C384   1.419       .  A
N378        H393   1.045       .  S
N378        H394   1.046       .  S
C380        C381   1.419       .  A
C380        H385   1.083       .  S
C381        C382   1.418       .  A
C381        N386   1.437       .  S
C382        C383   1.407       .  A
C383        C384   1.418       .  A
C383        H387   1.084       .  S
C384        N388   1.437       .  S
N386        H389   1.046       .  S
N386        H390   1.046       .  S
N388        H391   1.046       .  S
N388        H392   1.046       .  S
C397        C398   1.417       .  A
C397        C402   1.409       .  A
C398        C399   1.416       .  A
C398        N403   1.437       .  S
C399        C400   1.405       .  A
C399        H404   1.084       .  S
C400        C405   1.508       .  S
C400        C401   1.416       .  A
C401        C402   1.420       .  A
C401        N406   1.438       .  S
C402        H407   1.084       .  S
N403        H423   1.045       .  S
N403        H424   1.046       .  S
C405        C408   1.410       .  A
C405        C412   1.410       .  A
N406        H421   1.046       .  S
N406        H422   1.043       .  S
C408        C409   1.424       .  A
C408        H413   1.083       .  S
C409        C410   1.420       .  A
C409        N414   1.437       .  S
C410        C411   1.414       .  A
C411        C412   1.412       .  A
C411        H415   1.083       .  S
C412        N416   1.439       .  S
N414        H417   1.046       .  S
N414        H418   1.045       .  S
N416        H419   1.046       .  S
N416        H420   1.043       .  S
C425        C426   1.421       .  A
C425        C430   1.409       .  A
C426        C427   1.408       .  A
C426        N431   1.438       .  S
C427        C428   1.401       .  A
C427        H432   1.084       .  S
C428        C433   1.512       .  S
C428        C429   1.420       .  A
C429        C430   1.426       .  A
C429        N434   1.437       .  S
C430        H435   1.083       .  S
N431        H451   1.044       .  S
N431        H452   1.046       .  S
C433        C436   1.407       .  A
C433        C440   1.417       .  A
N434        H449   1.045       .  S
N434        H450   1.046       .  S
C436        C437   1.418       .  A
C436        H441   1.083       .  S
C437        C438   1.419       .  A
C437        N442   1.438       .  S
C438        C439   1.407       .  A
C439        C440   1.412       .  A
C439        H443   1.084       .  S
C440        N444   1.438       .  S
N442        H445   1.046       .  S
N442        H446   1.045       .  S
N444        H447   1.046       .  S
N444        H448   1.045       .  S
C453        C454   1.412       .  A
C453        C458   1.407       .  A
C454        C455   1.415       .  A
C454        N459   1.437       .  S
C455        C456   1.410       .  A
C455        H460   1.083       .  S
C456        C461   1.512       .  S
C456        C457   1.416       .  A
C457        C458   1.416       .  A
C457        N462   1.438       .  S
C458        H463   1.084       .  S
N459        H479   1.046       .  S
N459        H480   1.046       .  S
C461        C464   1.409       .  A
C461        C468   1.413       .  A
N462        H477   1.046       .  S
N462        H478   1.046       .  S
C464        C465   1.419       .  A
C464        H469   1.083       .  S
C465        C466   1.419       .  A
C465        N470   1.437       .  S
C466        C467   1.411       .  A
C467        C468   1.411       .  A
C467        H471   1.083       .  S
C468        N472   1.438       .  S
N470        H473   1.046       .  S
N470        H474   1.046       .  S
N472        H475   1.046       .  S
N472        H476   1.045       .  S
C481        C482   1.412       .  A
C481        C486   1.408       .  A
C482        C483   1.402       .  A
C482        N487   1.438       .  S
C483        C484   1.402       .  A
C483        H488   1.084       .  S
C484        C489   1.488       .  S
C484        C485   1.411   1_545  A
C485        C486   1.413   1_565  A
C485        N490   1.437       .  S
C486        H491   1.084   1_545  S
N487        H507   1.045       .  S
N487        H508   1.046       .  S
C489        C492   1.404       .  A
C489        C496   1.409   1_545  A
N490        H505   1.046       .  S
N490        H506   1.046       .  S
C492        C493   1.415       .  A
C492        H497   1.083       .  S
C493        C494   1.419       .  A
C493        N498   1.437       .  S
C494        C495   1.405   1_545  A
C495        C496   1.401       .  A
C495        H499   1.084       .  S
C496        N500   1.439       .  S
N498        H501   1.046       .  S
N498        H502   1.046       .  S
N500        H503   1.046       .  S
N500        H504   1.046       .  S
C509        C510   1.413   1_545  A
C509        C514   1.407       .  A
C510        C511   1.406       .  A
C510        N515   1.438       .  S
C511        C512   1.402   1_565  A
C511        H516   1.084       .  S
C512        C517   1.483       .  S
C512        C513   1.409       .  A
C513        C514   1.410       .  A
C513        N518   1.438       .  S
C514        H519   1.084       .  S
N515        H535   1.045       .  S
N515        H536   1.046       .  S
C517        C520   1.402       .  A
C517        C524   1.408       .  A
N518        H533   1.046       .  S
N518        H534   1.044       .  S
C520        C521   1.406       .  A
C520        H525   1.084       .  S
C521        C522   1.415       .  A
C521        N526   1.438       .  S
C522        C523   1.408       .  A
C523        C524   1.408       .  A
C523        H527   1.083       .  S
C524        N528   1.438   1_545  S
N526        H529   1.046       .  S
N526        H530   1.045       .  S
N528        H531   1.046       .  S
N528        H532   1.044       .  S
C537        C538   1.419       .  A
C537        C542   1.410       .  A
C538        C539   1.410       .  A
C538        N543   1.437       .  S
C539        C540   1.401       .  A
C539        H544   1.084       .  S
C540        C545   1.477       .  S
C540        C541   1.405       .  A
C541        C542   1.401       .  A
C541        N546   1.439       .  S
C542        H547   1.083       .  S
N543        H563   1.045       .  S
N543        H564   1.046       .  S
C545        C548   1.398       .  A
C545        C552   1.409       .  A
N546        H561   1.046       .  S
N546        H562   1.044       .  S
C548        C549   1.401       .  A
C548        H553   1.084       .  S
C549        C550   1.417       .  A
C549        N554   1.439       .  S
C550        C551   1.407       .  A
C551        C552   1.409       .  A
C551        H555   1.084       .  S
C552        N556   1.437       .  S
N554        H557   1.046       .  S
N554        H558   1.046       .  S
N556        H559   1.046       .  S
N556        H560   1.045       .  S
C565        C566   1.409   1_556  A
C565        C570   1.398       .  A
C566        C567   1.399       .  A
C566        N571   1.438       .  S
C567        C568   1.401   1_554  A
C567        H572   1.084       .  S
C568        C573   1.468       .  S
C568        C569   1.409       .  A
C569        C570   1.395       .  A
C569        N574   1.433       .  S
C570        H575   1.085       .  S
N571        H591   1.046       .  S
N571        H592   1.046       .  S
C573        C576   1.402   1_556  A
C573        C580   1.402       .  A
N574        H589   1.046       .  S
N574        H590   1.046       .  S
C576        C577   1.397       .  A
C576        H581   1.084       .  S
C577        C578   1.410   1_554  A
C577        N582   1.433       .  S
C578        C579   1.409       .  A
C579        C580   1.397       .  A
C579        H583   1.084       .  S
C580        N584   1.433       .  S
N582        H585   1.045       .  S
N582        H586   1.046       .  S
N584        H587   1.046       .  S
N584        H588   1.046       .  S
C593        C594   1.415   1_554  A
C593        C598   1.411       .  A
C594        C595   1.400       .  A
C594        N599   1.438       .  S
C595        C596   1.402   1_556  A
C595        H600   1.084       .  S
C596        C601   1.474       .  S
C596        C597   1.404       .  A
C597        C598   1.401       .  A
C597        N602   1.438       .  S
C598        H603   1.083       .  S
N599        H619   1.046       .  S
N599        H620   1.046       .  S
C601        C604   1.401       .  A
C601        C608   1.407   1_554  A
N602        H617   1.046       .  S
N602        H618   1.046       .  S
C604        C605   1.396       .  A
C604        H609   1.084       .  S
C605        C606   1.412       .  A
C605        N610   1.433       .  S
C606        C607   1.407   1_554  A
C607        C608   1.400       .  A
C607        H611   1.084       .  S
C608        N612   1.438       .  S
N610        H613   1.046       .  S
N610        H614   1.046       .  S
N612        H615   1.046       .  S
N612        H616   1.045       .  S
C621        C622   1.413       .  A
C621        C626   1.405   1_545  A
C622        C623   1.412       .  A
C622        N627   1.437       .  S
C623        C624   1.403       .  A
C623        H628   1.083       .  S
C624        C629   1.488       .  S
C624        C625   1.411   1_545  A
C625        C626   1.408       .  A
C625        N630   1.438       .  S
C626        H631   1.084       .  S
N627        H647   1.045       .  S
N627        H648   1.045       .  S
C629        C632   1.398   1_545  A
C629        C636   1.411       .  A
N630        H645   1.046       .  S
N630        H646   1.045       .  S
C632        C633   1.405       .  A
C632        H637   1.084       .  S
C633        C634   1.419   1_565  A
C633        N638   1.433       .  S
C634        C635   1.408       .  A
C635        C636   1.413       .  A
C635        H639   1.083       .  S
C636        N640   1.437       .  S
N638        H641   1.046       .  S
N638        H642   1.046       .  S
N640        H643   1.046       .  S
N640        H644   1.045       .  S
C649        C650   1.410   1_556  A
C649        C654   1.406       .  A
C650        C651   1.404       .  A
C650        N655   1.438       .  S
C651        C652   1.403   1_554  A
C651        H656   1.084       .  S
C652        C657   1.490       .  S
C652        C653   1.412       .  A
C653        C654   1.414       .  A
C653        N658   1.437       .  S
C654        H659   1.083       .  S
N655        H675   1.046       .  S
N655        H676   1.046       .  S
C657        C660   1.402       .  A
C657        C664   1.409   1_556  A
N658        H673   1.046       .  S
N658        H674   1.046       .  S
C660        C661   1.412       .  A
C660        H665   1.084       .  S
C661        C662   1.422       .  A
C661        N666   1.438       .  S
C662        C663   1.407   1_556  A
C663        C664   1.405       .  A
C663        H667   1.083       .  S
C664        N668   1.438       .  S
N666        H669   1.046       .  S
N666        H670   1.046       .  S
N668        H671   1.045       .  S
N668        H672   1.046       .  S
C677        C678   1.410   1_554  A
C677        C682   1.406       .  A
C678        C679   1.406       .  A
C678        N683   1.437       .  S
C679        C680   1.402   1_556  A
C679        H684   1.084       .  S
C680        C685   1.478       .  S
C680        C681   1.407       .  A
C681        C682   1.405       .  A
C681        N686   1.438       .  S
C682        H687   1.082       .  S
N683        H703   1.045       .  S
N683        H704   1.046       .  S
C685        C688   1.402       .  A
C685        C692   1.406       .  A
N686        H701   1.046       .  S
N686        H702   1.045       .  S
C688        C689   1.405       .  A
C688        H693   1.084   1_554  S
C689        C690   1.412       .  A
C689        N694   1.438   1_554  S
C690        C691   1.407       .  A
C691        C692   1.408       .  A
C691        H695   1.081       .  S
C692        N696   1.438       .  S
N694        H697   1.046       .  S
N694        H698   1.045       .  S
N696        H699   1.046       .  S
N696        H700   1.045       .  S
C705        C706   1.416       .  A
C705        C710   1.404       .  A
C706        C707   1.409       .  A
C706        N711   1.438       .  S
C707        C708   1.403       .  A
C707        H712   1.083       .  S
C708        C713   1.502       .  S
C708        C709   1.416       .  A
C709        C710   1.414       .  A
C709        N714   1.437       .  S
C710        H715   1.083       .  S
N711        H731   1.046       .  S
N711        H732   1.046       .  S
C713        C716   1.402   1_655  A
C713        C720   1.414       .  A
N714        H729   1.045       .  S
N714        H730   1.046       .  S
C716        C717   1.408       .  A
C716        H721   1.084       .  S
C717        C718   1.423   1_455  A
C717        N722   1.439       .  S
C718        C719   1.409       .  A
C719        C720   1.414       .  A
C719        H723   1.083       .  S
C720        N724   1.437       .  S
N722        H725   1.046       .  S
N722        H726   1.046       .  S
N724        H727   1.046       .  S
N724        H728   1.045       .  S
C733        C734   1.413   1_556  A
C733        C738   1.409       .  A
C734        C735   1.412       .  A
C734        N739   1.437       .  S
C735        C736   1.407       .  A
C735        H740   1.083       .  S
C736        C741   1.496       .  S
C736        C737   1.410   1_554  A
C737        C738   1.407       .  A
C737        N742   1.438       .  S
C738        H743   1.084       .  S
N739        H759   1.045       .  S
N739        H760   1.046       .  S
C741        C744   1.405   1_554  A
C741        C748   1.409       .  A
N742        H757   1.046       .  S
N742        H758   1.046       .  S
C744        C745   1.412       .  A
C744        H749   1.084       .  S
C745        C746   1.420   1_556  A
C745        N750   1.438       .  S
C746        C747   1.411       .  A
C747        C748   1.406       .  A
C747        H751   1.083       .  S
C748        N752   1.438       .  S
N750        H753   1.046       .  S
N750        H754   1.046       .  S
N752        H755   1.045       .  S
N752        H756   1.046       .  S
C761        C762   1.419       .  A
C761        C766   1.409   1_556  A
C762        C763   1.411       .  A
C762        N767   1.438       .  S
C763        C764   1.404       .  A
C763        H768   1.084       .  S
C764        C769   1.491       .  S
C764        C765   1.409   1_556  A
C765        C766   1.405       .  A
C765        N770   1.438       .  S
C766        H771   1.083       .  S
N767        H787   1.045       .  S
N767        H788   1.046       .  S
C769        C772   1.403   1_556  A
C769        C776   1.409       .  A
N770        H785   1.046       .  S
N770        H786   1.046       .  S
C772        C773   1.407       .  A
C772        H777   1.084       .  S
C773        C774   1.418   1_554  A
C773        N778   1.438       .  S
C774        C775   1.410       .  A
C775        C776   1.408       .  A
C775        H779   1.083       .  S
C776        N780   1.438       .  S
N778        H781   1.046       .  S
N778        H782   1.046       .  S
N780        H783   1.046       .  S
N780        H784   1.046       .  S
C789        C790   1.416   1_556  A
C789        C794   1.408   1_455  A
C790        C791   1.417       .  A
C790        N795   1.437       .  S
C791        C792   1.409   1_554  A
C791        H796   1.083       .  S
C792        C797   1.508       .  S
C792        C793   1.413   1_455  A
C793        C794   1.411       .  A
C793        N798   1.438       .  S
C794        H799   1.084       .  S
N795        H815   1.044       .  S
N795        H816   1.046       .  S
C797        C800   1.409       .  A
C797        C804   1.414   1_456  A
N798        H813   1.046       .  S
N798        H814   1.046       .  S
C800        C801   1.414       .  A
C800        H805   1.083       .  S
C801        C802   1.413       .  A
C801        N806   1.438       .  S
C802        C803   1.406   1_456  A
C803        C804   1.413       .  A
C803        H807   1.084       .  S
C804        N808   1.437       .  S
N806        H809   1.046       .  S
N806        H810   1.046       .  S
N808        H811   1.046       .  S
N808        H812   1.046       .  S
C817        C818   1.420       .  A
C817        C822   1.408   1_554  A
C818        C819   1.414       .  A
C818        N823   1.438       .  S
C819        C820   1.404       .  A
C819        H824   1.084       .  S
C820        C825   1.505       .  S
C820        C821   1.421   1_554  A
C821        C822   1.413       .  A
C821        N826   1.438       .  S
C822        H827   1.084       .  S
N823        H843   1.046   1_455  S
N823        H844   1.046       .  S
C825        C828   1.408       .  A
C825        C832   1.414   1_454  A
N826        H841   1.046       .  S
N826        H842   1.043       .  S
C828        C829   1.417       .  A
C828        H833   1.083       .  S
C829        C830   1.411       .  A
C829        N834   1.436       .  S
C830        C831   1.407   1_454  A
C831        C832   1.414       .  A
C831        H835   1.084       .  S
C832        N836   1.438       .  S
N834        H837   1.046       .  S
N834        H838   1.046       .  S
N836        H839   1.046       .  S
N836        H840   1.044       .  S
C845        C846   1.416       .  A
C845        C850   1.409   1_545  A
C846        C847   1.411       .  A
C846        N851   1.438       .  S
C847        C848   1.405       .  A
C847        H852   1.084       .  S
C848        C853   1.487       .  S
C848        C849   1.407   1_545  A
C849        C850   1.405       .  A
C849        N854   1.438       .  S
C850        H855   1.083       .  S
N851        H871   1.046       .  S
N851        H872   1.046       .  S
C853        C856   1.405       .  A
C853        C860   1.408   1_455  A
N854        H869   1.046       .  S
N854        H870   1.046       .  S
C856        C857   1.414       .  A
C856        H861   1.083       .  S
C857        C858   1.416       .  A
C857        N862   1.438       .  S
C858        C859   1.407   1_455  A
C859        C860   1.402       .  A
C859        H863   1.083       .  S
C860        N864   1.439       .  S
N862        H865   1.046       .  S
N862        H866   1.046       .  S
N864        H867   1.046   1_545  S
N864        H868   1.046   1_545  S
C873        C874   1.417       .  A
C873        C878   1.410       .  A
C874        C875   1.410       .  A
C874        N879   1.437       .  S
C875        C876   1.402       .  A
C875        H880   1.084       .  S
C876        C881   1.478       .  S
C876        C877   1.405       .  A
C877        C878   1.400       .  A
C877        N882   1.439       .  S
C878        H883   1.083       .  S
N879        H899   1.046       .  S
N879        H900   1.046       .  S
C881        C884   1.397       .  A
C881        C888   1.407       .  A
N882        H897   1.046       .  S
N882        H898   1.046       .  S
C884        C885   1.402       .  A
C884        H889   1.084       .  S
C885        C886   1.420       .  A
C885        N890   1.438       .  S
C886        C887   1.410       .  A
C887        C888   1.408       .  A
C887        H891   1.083       .  S
C888        N892   1.437       .  S
N890        H893   1.046       .  S
N890        H894   1.046       .  S
N892        H895   1.046       .  S
N892        H896   1.046       .  S
C901        C902   1.418       .  A
C901        C906   1.408       .  A
C902        C903   1.404       .  A
C902        N907   1.438       .  S
C903        C904   1.399       .  A
C903        H908   1.084       .  S
C904        C909   1.482       .  S
C904        C905   1.408       .  A
C905        C906   1.409       .  A
C905        N910   1.437       .  S
C906        H911   1.083       .  S
N907        H927   1.046       .  S
N907        H928   1.046       .  S
C909        C912   1.400       .  A
C909        C916   1.411       .  A
N910        H925   1.046       .  S
N910        H926   1.046       .  S
C912        C913   1.404       .  A
C912        H917   1.084       .  S
C913        C914   1.412       .  A
C913        N918   1.438       .  S
C914        C915   1.405       .  A
C915        C916   1.409       .  A
C915        H919   1.084       .  S
C916        N920   1.437       .  S
N918        H921   1.045       .  S
N918        H922   1.046       .  S
N920        H923   1.046       .  S
N920        H924   1.045       .  S
C929        C930   1.420   1_545  A
C929        C934   1.409       .  A
C930        C931   1.397       .  A
C930        N935   1.433       .  S
C931        C932   1.396   1_565  A
C931        H936   1.084       .  S
C932        C937   1.485       .  S
C932        C933   1.412       .  A
C933        C934   1.414       .  A
C933        N938   1.437       .  S
C934        H939   1.083       .  S
N935        H955   1.046       .  S
N935        H956   1.046       .  S
C937        C940   1.403       .  A
C937        C944   1.410   1_545  A
N938        H953   1.046       .  S
N938        H954   1.046       .  S
C940        C941   1.411       .  A
C940        H945   1.084       .  S
C941        C942   1.414   1_545  A
C941        N946   1.437       .  S
C942        C943   1.406       .  A
C943        C944   1.403       .  A
C943        H947   1.084       .  S
C944        N948   1.438       .  S
N946        H949   1.046       .  S
N946        H950   1.045       .  S
N948        H951   1.046       .  S
N948        H952   1.045       .  S
C957        C958   1.418       .  A
C957        C962   1.412       .  A
C958        C959   1.422       .  A
C958        N963   1.437       .  S
C959        C960   1.412       .  A
C959        H964   1.083       .  S
C960        C965   1.507       .  S
C960        C961   1.409       .  A
C961        C962   1.405       .  A
C961        N966   1.439       .  S
C962        H967   1.083       .  S
N963        H983   1.045       .  S
N963        H984   1.046       .  S
C965        C968   1.407       .  A
C965        C972   1.411       .  A
N966        H981   1.046       .  S
N966        H982   1.046       .  S
C968        C969   1.413       .  A
C968        H973   1.083       .  S
C969        C970   1.420       .  A
C969        N974   1.438       .  S
C970        C971   1.414       .  A
C971        C972   1.414       .  A
C971        H975   1.083       .  S
C972        N976   1.438       .  S
N974        H977   1.046       .  S
N974        H978   1.045       .  S
N976        H979   1.046       .  S
N976        H980   1.046       .  S
C985        C986   1.414       .  A
C985        C990   1.405       .  A
C986        C987   1.417       .  A
C986        N991   1.437       .  S
C987        C988   1.408       .  A
C987        H992   1.083       .  S
C988        C993   1.501       .  S
C988        C989   1.412       .  A
C989        C990   1.409       .  A
C989        N994   1.438       .  S
C990        H995   1.084       .  S
N991       H1011   1.046       .  S
N991       H1012   1.046       .  S
C993        C996   1.401       .  A
C993       C1000   1.413       .  A
N994       H1009   1.045       .  S
N994       H1010   1.046       .  S
C996        C997   1.409       .  A
C996       H1001   1.084       .  S
C997        C998   1.423       .  A
C997       N1002   1.438       .  S
C998        C999   1.411       .  A
C999       C1000   1.416       .  A
C999       H1003   1.083       .  S
C1000      N1004   1.437       .  S
N1002      H1005   1.046       .  S
N1002      H1006   1.046       .  S
N1004      H1007   1.046       .  S
N1004      H1008   1.046       .  S
C1013      C1014   1.421       .  A
C1013      C1018   1.412       .  A
C1014      C1015   1.413       .  A
C1014      N1019   1.437       .  S
C1015      C1016   1.402       .  A
C1015      H1020   1.083       .  S
C1016      C1021   1.493       .  S
C1016      C1017   1.409       .  A
C1017      C1018   1.410       .  A
C1017      N1022   1.438   1_565  S
C1018      H1023   1.083   1_565  S
N1019      H1039   1.045       .  S
N1019      H1040   1.046       .  S
C1021      C1024   1.402       .  A
C1021      C1028   1.408       .  A
N1022      H1037   1.046       .  S
N1022      H1038   1.046       .  S
C1024      C1025   1.412       .  A
C1024      H1029   1.084       .  S
C1025      C1026   1.421       .  A
C1025      N1030   1.437       .  S
C1026      C1027   1.411       .  A
C1027      C1028   1.411       .  A
C1027      H1031   1.083   1_565  S
C1028      N1032   1.438   1_565  S
N1030      H1033   1.046       .  S
N1030      H1034   1.045       .  S
N1032      H1035   1.046       .  S
N1032      H1036   1.046       .  S
C1041      C1042   1.416       .  A
C1041      C1046   1.407       .  A
C1042      C1043   1.410       .  A
C1042      N1047   1.437       .  S
C1043      C1044   1.404   1_455  A
C1043      H1048   1.084       .  S
C1044      C1049   1.484       .  S
C1044      C1045   1.409       .  A
C1045      C1046   1.400   1_655  A
C1045      N1050   1.439       .  S
C1046      H1051   1.083       .  S
N1047      H1067   1.045   1_455  S
N1047      H1068   1.046       .  S
C1049      C1052   1.401       .  A
C1049      C1056   1.412   1_655  A
N1050      H1065   1.046       .  S
N1050      H1066   1.046   1_655  S
C1052      C1053   1.401       .  A
C1052      H1057   1.084       .  S
C1053      C1054   1.412       .  A
C1053      N1058   1.439       .  S
C1054      C1055   1.403   1_655  A
C1055      C1056   1.409       .  A
C1055      H1059   1.084       .  S
C1056      N1060   1.437       .  S
N1058      H1061   1.046       .  S
N1058      H1062   1.046       .  S
N1060      H1063   1.046       .  S
N1060      H1064   1.045       .  S
C1069      C1070   1.413       .  A
C1069      C1074   1.407       .  A
C1070      C1071   1.406       .  A
C1070      N1075   1.438       .  S
C1071      C1072   1.403       .  A
C1071      H1076   1.084       .  S
C1072      C1077   1.470       .  S
C1072      C1073   1.403       .  A
C1073      C1074   1.394       .  A
C1073      N1078   1.438       .  S
C1074      H1079   1.084       .  S
N1075      H1095   1.045       .  S
N1075      H1096   1.046       .  S
C1077      C1080   1.399       .  A
C1077      C1084   1.404       .  A
N1078      H1093   1.046       .  S
N1078      H1094   1.045       .  S
C1080      C1081   1.400       .  A
C1080      H1085   1.084       .  S
C1081      C1082   1.419       .  A
C1081      N1086   1.439       .  S
C1082      C1083   1.408       .  A
C1083      C1084   1.401       .  A
C1083      H1087   1.083       .  S
C1084      N1088   1.438       .  S
N1086      H1089   1.046       .  S
N1086      H1090   1.046       .  S
N1088      H1091   1.046       .  S
N1088      H1092   1.046       .  S
C1097      C1098   1.419       .  A
C1097      C1102   1.406       .  A
C1098      C1099   1.399       .  A
C1098      N1103   1.439       .  S
C1099      C1100   1.396       .  A
C1099      H1104   1.084       .  S
C1100      C1105   1.476       .  S
C1100      C1101   1.409       .  A
C1101      C1102   1.406       .  A
C1101      N1106   1.438       .  S
C1102      H1107   1.083       .  S
N1103      H1123   1.046       .  S
N1103      H1124   1.046       .  S
C1105      C1108   1.404       .  A
C1105      C1112   1.408       .  A
N1106      H1121   1.045       .  S
N1106      H1122   1.046       .  S
C1108      C1109   1.402       .  A
C1108      H1113   1.084       .  S
C1109      C1110   1.407       .  A
C1109      N1114   1.437       .  S
C1110      C1111   1.406       .  A
C1111      C1112   1.401       .  A
C1111      H1115   1.084       .  S
C1112      N1116   1.438       .  S
N1114      H1117   1.046       .  S
N1114      H1118   1.046       .  S
N1116      H1119   1.046       .  S
N1116      H1120   1.046       .  S
C1125      C1126   1.412       .  A
C1125      C1130   1.406       .  A
C1126      C1127   1.407       .  A
C1126      N1131   1.438       .  S
C1127      C1128   1.407       .  A
C1127      H1132   1.083       .  S
C1128      C1133   1.497       .  S
C1128      C1129   1.413       .  A
C1129      C1130   1.407       .  A
C1129      N1134   1.438       .  S
C1130      H1135   1.084       .  S
N1131      H1151   1.046       .  S
N1131      H1152   1.046       .  S
C1133      C1136   1.408       .  A
C1133      C1140   1.413       .  A
N1134      H1149   1.046       .  S
N1134      H1150   1.046       .  S
C1136      C1137   1.408       .  A
C1136      H1141   1.083       .  S
C1137      C1138   1.410       .  A
C1137      N1142   1.438       .  S
C1138      C1139   1.404       .  A
C1139      C1140   1.407       .  A
C1139      H1143   1.084       .  S
C1140      N1144   1.438       .  S
N1142      H1145   1.046       .  S
N1142      H1146   1.045   1_455  S
N1144      H1147   1.046       .  S
N1144      H1148   1.046       .  S
C1153      C1154   1.417   1_565  A
C1153      C1158   1.409       .  A
C1154      C1155   1.416       .  A
C1154      N1159   1.436       .  S
C1155      C1156   1.407   1_545  A
C1155      H1160   1.083       .  S
C1156      C1161   1.495       .  S
C1156      C1157   1.409       .  A
C1157      C1158   1.403       .  A
C1157      N1162   1.439       .  S
C1158      H1163   1.083       .  S
N1159      H1179   1.045       .  S
N1159      H1180   1.046       .  S
C1161      C1164   1.408       .  A
C1161      C1168   1.410   1_565  A
N1162      H1177   1.046       .  S
N1162      H1178   1.046   1_655  S
C1164      C1165   1.413       .  A
C1164      H1169   1.084       .  S
C1165      C1166   1.411   1_565  A
C1165      N1170   1.437       .  S
C1166      C1167   1.407       .  A
C1167      C1168   1.407       .  A
C1167      H1171   1.084       .  S
C1168      N1172   1.438       .  S
N1170      H1173   1.046       .  S
N1170      H1174   1.045       .  S
N1172      H1175   1.046   1_655  S
N1172      H1176   1.045   1_655  S
C1181      C1182   1.417       .  A
C1181      C1186   1.411   1_455  A
C1182      C1183   1.408       .  A
C1182      N1187   1.438       .  S
C1183      C1184   1.404       .  A
C1183      H1188   1.084       .  S
C1184      C1189   1.499       .  S
C1184      C1185   1.412   1_455  A
C1185      C1186   1.414       .  A
C1185      N1190   1.437       .  S
C1186      H1191   1.083       .  S
N1187      H1207   1.045       .  S
N1187      H1208   1.046       .  S
C1189      C1192   1.408       .  A
C1189      C1196   1.408   1_455  A
N1190      H1205   1.046       .  S
N1190      H1206   1.046       .  S
C1192      C1193   1.419       .  A
C1192      H1197   1.083       .  S
C1193      C1194   1.419       .  A
C1193      N1198   1.437       .  S
C1194      C1195   1.413   1_455  A
C1195      C1196   1.405       .  A
C1195      H1199   1.083       .  S
C1196      N1200   1.439       .  S
N1198      H1201   1.046       .  S
N1198      H1202   1.045       .  S
N1200      H1203   1.045       .  S
N1200      H1204   1.046       .  S
C1209      C1210   1.420       .  A
C1209      C1214   1.415   1_455  A
C1210      C1211   1.420       .  A
C1210      N1215   1.437       .  S
C1211      C1212   1.408       .  A
C1211      H1216   1.083       .  S
C1212      C1217   1.510       .  S
C1212      C1213   1.411   1_455  A
C1213      C1214   1.414       .  A
C1213      N1218   1.438       .  S
C1214      H1219   1.083       .  S
N1215      H1235   1.046       .  S
N1215      H1236   1.046       .  S
C1217      C1220   1.407       .  A
C1217      C1224   1.414   1_455  A
N1218      H1233   1.046       .  S
N1218      H1234   1.046       .  S
C1220      C1221   1.416       .  A
C1220      H1225   1.083       .  S
C1221      C1222   1.416       .  A
C1221      N1226   1.438       .  S
C1222      C1223   1.410       .  A
C1223      C1224   1.416   1_455  A
C1223      H1227   1.084   1_455  S
C1224      N1228   1.437       .  S
N1226      H1229   1.045       .  S
N1226      H1230   1.046       .  S
N1228      H1231   1.046       .  S
N1228      H1232   1.046       .  S
C1237      C1238   1.412   1_565  A
C1237      C1242   1.406       .  A
C1238      C1239   1.402       .  A
C1238      N1243   1.437       .  S
C1239      C1240   1.400   1_545  A
C1239      H1244   1.084       .  S
C1240      C1245   1.459       .  S
C1240      C1241   1.409       .  A
C1241      C1242   1.390       .  A
C1241      N1246   1.440       .  S
C1242      H1247   1.084       .  S
N1243      H1263   1.044       .  S
N1243      H1264   1.046       .  S
C1245      C1248   1.397   1_565  A
C1245      C1252   1.405       .  A
N1246      H1261   1.046       .  S
N1246      H1262   1.043       .  S
C1248      C1249   1.395       .  A
C1248      H1253   1.084       .  S
C1249      C1250   1.411   1_545  A
C1249      N1254   1.439       .  S
C1250      C1251   1.404       .  A
C1251      C1252   1.401       .  A
C1251      H1255   1.084       .  S
C1252      N1256   1.437       .  S
N1254      H1257   1.046       .  S
N1254      H1258   1.046       .  S
N1256      H1259   1.046       .  S
N1256      H1260   1.045       .  S
C1265      C1266   1.414       .  A
C1265      C1270   1.401       .  A
C1266      C1267   1.400   1_565  A
C1266      N1271   1.439   1_565  S
C1267      C1268   1.401   1_545  A
C1267      H1272   1.084       .  S
C1268      C1273   1.480       .  S
C1268      C1269   1.411       .  A
C1269      C1270   1.402       .  A
C1269      N1274   1.438       .  S
C1270      H1275   1.084       .  S
N1271      H1291   1.045       .  S
N1271      H1292   1.046       .  S
C1273      C1276   1.402       .  A
C1273      C1280   1.407       .  A
N1274      H1289   1.046       .  S
N1274      H1290   1.046       .  S
C1276      C1277   1.403       .  A
C1276      H1281   1.084       .  S
C1277      C1278   1.418   1_565  A
C1277      N1282   1.438       .  S
C1278      C1279   1.409       .  A
C1279      C1280   1.400   1_545  A
C1279      H1283   1.083       .  S
C1280      N1284   1.438       .  S
N1282      H1285   1.046       .  S
N1282      H1286   1.045   1_565  S
N1284      H1287   1.046   1_565  S
N1284      H1288   1.046       .  S
C1293      C1294   1.413   1_565  A
C1293      C1298   1.406       .  A
C1294      C1295   1.407       .  A
C1294      N1299   1.438       .  S
C1295      C1296   1.405   1_545  A
C1295      H1300   1.084       .  S
C1296      C1301   1.496       .  S
C1296      C1297   1.412       .  A
C1297      C1298   1.413       .  A
C1297      N1302   1.437   1_455  S
C1298      H1303   1.084       .  S
N1299      H1319   1.046       .  S
N1299      H1320   1.046       .  S
C1301      C1304   1.407       .  A
C1301      C1308   1.412   1_455  A
N1302      H1317   1.045       .  S
N1302      H1318   1.046       .  S
C1304      C1305   1.414       .  A
C1304      H1309   1.083       .  S
C1305      C1306   1.413       .  A
C1305      N1310   1.437       .  S
C1306      C1307   1.402   1_455  A
C1307      C1308   1.406       .  A
C1307      H1311   1.084   1_565  S
C1308      N1312   1.438   1_565  S
N1310      H1313   1.046       .  S
N1310      H1314   1.046       .  S
N1312      H1315   1.046       .  S
N1312      H1316   1.046   1_545  S
