geometry optimzed in LAMMPS
_audit_creation_date              2020-12-01 
_audit_creation_method            'lammps2cif' 
_symmetry_space_group_name_H-M    'P1' 
_symmetry_Int_Tables_number       1 
_symmetry_cell_setting            triclinic 
loop_ 
_symmetry_equiv_pos_as_xyz 
  x,y,z 
_cell_length_a                    58.43731685 
_cell_length_b                    58.22329095293461 
_cell_length_c                    43.95630922637434 
_cell_angle_alpha                 90.18042000612229 
_cell_angle_beta                  89.9152721566439 
_cell_angle_gamma                 119.95963899895186 
loop_ 
_atom_site_label 
_atom_site_type_symbol 
_atom_site_fract_x 
_atom_site_fract_y 
_atom_site_fract_z 
_atom_site_charge 
O1          O  0.39198974  0.05278761  0.43370837    -0.82300
C2          C  0.48536019  0.06467823  0.37831136     0.97100
O3          O  0.47142569  0.04822408  0.39845600    -0.71400
O4          O  0.46383340  0.07207194  0.44347683    -0.75000
Al5        Al  0.44091857  0.04219057  0.42003770     1.49000
C6          C  0.46109492  0.09080057  0.45362818     0.92300
O7          O  0.44374003  0.11202980  0.38894037    -0.81200
O8          O  0.40255344  0.04591788  0.34612638    -0.74800
Al9        Al  0.41904202  0.08051571  0.40979877     1.90100
O10         O  0.44528448  0.09458773  0.34584974    -0.73800
O11         O  0.43309627  0.02528828  0.35372476    -0.73700
O12         O  0.47571898  0.07485623  0.36079570    -0.79300
O13         O  0.41895619  0.00966563  0.39915828    -0.77600
O14         O  0.43268811  0.06105592  0.39522127    -1.13700
O15         O  0.41284216  0.03218343  0.44750259    -0.72900
C16         C  0.39362637  0.03598290  0.45003994     0.97800
C17         C  0.45012198  0.11460213  0.36128406     0.94200
Al18       Al  0.43851902  0.06028378  0.35520011     1.55600
O19         O  0.44267509  0.09447590  0.44431502    -0.77500
C20         C  0.42284622  0.00600495  0.37179439     0.98400
C21         C  0.38695440  0.05339690  0.35575133     0.93300
O22         O  0.39293129  0.06942887  0.37793486    -0.82800
O23         O  0.10202140  0.14300416  0.56673580    -0.82300
C24         C  0.01229355  0.08095693  0.64183691     0.97100
O25         O  0.01973059  0.07394551  0.61846278    -0.71400
O26         O  0.02344373  0.10409792  0.57184804    -0.75000
Al27       Al  0.04632704  0.09313459  0.58878708     1.49000
C28         C  0.03164847  0.12429750  0.55505985     0.92300
O29         O  0.06143288  0.16722239  0.61114899    -0.81200
O30         O  0.10139294  0.13939584  0.65141979    -0.74800
Al31       Al  0.08081042  0.15370513  0.59008321     1.90100
O32         O  0.06313146  0.15272983  0.65659992    -0.73800
O33         O  0.06702207  0.08939726  0.65204548    -0.73700
O34         O  0.02729818  0.10266982  0.65469712    -0.79300
O35         O  0.06815152  0.08038415  0.60366715    -0.77600
O36         O  0.06391740  0.12281830  0.60980630    -1.13700
O37         O  0.06850961  0.10448594  0.55385187    -0.72900
C38         C  0.09236263  0.12214579  0.55068132     0.97800
C39         C  0.05777533  0.16681077  0.63957522     0.94200
Al40       Al  0.06470159  0.12131658  0.65027864     1.55600
O41         O  0.05507818  0.14350729  0.55760725    -0.77500
C42         C  0.07301296  0.07833717  0.63116944     0.98400
C43         C  0.11726472  0.16132449  0.63980304     0.93300
O44         O  0.11005340  0.17055629  0.61818114    -0.82800
O45         O  0.05952826  0.39957413  0.55534151    -0.82300
C46         C  0.08606394  0.49188139  0.62594805     0.97100
O47         O  0.07591001  0.48558039  0.59993114    -0.71400
O48         O  0.10444079  0.47826814  0.55992874    -0.75000
Al49       Al  0.06878270  0.45798784  0.57228912     1.49000
C50         C  0.11655305  0.46852352  0.54614087     0.92300
O51         O  0.11985515  0.43764106  0.60664966    -0.81200
O52         O  0.04836382  0.40112496  0.63799350    -0.74800
Al53       Al  0.08945648  0.41962997  0.58189786     1.90100
O54         O  0.10050365  0.43810578  0.64936003    -0.73800
O55         O  0.03641017  0.43812249  0.63205165    -0.73700
O56         O  0.08882197  0.47560649  0.64198569    -0.79300
O57         O  0.03278967  0.43960175  0.58253996    -0.77600
O58         O  0.07580591  0.43862207  0.59725275    -1.13700
O59         O  0.05943639  0.43477510  0.53814969    -0.72900
C60         C  0.05216590  0.41047289  0.53580633     0.97800
C61         C  0.12089408  0.44195370  0.63498202     0.94200
Al62       Al  0.06912753  0.43814476  0.63699194     1.55600
O63         O  0.10974629  0.44436338  0.54977561    -0.77500
C64         C  0.02267676  0.43562603  0.60874712     0.98400
C65         C  0.05450126  0.38447099  0.62893221     0.93300
O66         O  0.07301602  0.39092256  0.61012732    -0.82800
O67         O  0.15281386  0.09782827  0.43760910    -0.82300
C68         C  0.09186506  0.00662382  0.36221909     0.97100
O69         O  0.08829271  0.01100741  0.38921154    -0.71400
O70         O  0.12460723  0.02001416  0.42927387    -0.75000
Al71       Al  0.10683542  0.03834068  0.41760348     1.49000
C72         C  0.14590526  0.03092406  0.44411089     0.92300
O73         O  0.18003017  0.06483292  0.38419296    -0.81200
O74         O  0.14327975  0.09890639  0.35307898    -0.74800
Al75       Al  0.16519922  0.08037904  0.40988348     1.90100
O76         O  0.15887278  0.06210266  0.34167769    -0.73800
O77         O  0.09467782  0.06170091  0.35939469    -0.73700
O78         O  0.10976890  0.02451199  0.34647844    -0.79300
O79         O  0.08663079  0.05434562  0.40829827    -0.77600
O80         O  0.13305015  0.06017448  0.39347895    -1.13700
O81         O  0.11861530  0.06060208  0.45238046    -0.72900
C82         C  0.13440533  0.08497106  0.45656663     0.97800
C83         C  0.17664067  0.06011277  0.35588169     0.94200
Al84       Al  0.12728917  0.06175745  0.35374241     1.55600
O85         O  0.16195257  0.05544238  0.44099546    -0.77500
C86         C  0.08196125  0.06124120  0.38294498     0.98400
C87         C  0.16567402  0.11588615  0.36250544     0.93300
O88         O  0.17677412  0.11003362  0.38313223    -0.82800
O89         O  0.45605444  0.35077617  0.42989912    -0.82300
C90         C  0.43610523  0.41770646  0.35577596     0.97100
O91         O  0.45486502  0.42525563  0.37440576    -0.71400
O92         O  0.42892390  0.39979572  0.42241096    -0.75000
Al93       Al  0.45983878  0.40457183  0.40432397     1.49000
C94         C  0.41278715  0.38055664  0.43846272     0.92300
O95         O  0.39296985  0.33289187  0.38446491    -0.81200
O96         O  0.45880339  0.35335635  0.34237961    -0.74800
Al97       Al  0.42553740  0.34388935  0.40575131     1.90100
O98         O  0.40863082  0.34441254  0.33841919    -0.73800
O99         O  0.47867455  0.40493899  0.34022965    -0.73700
O100        O  0.42650889  0.39544319  0.34292698    -0.79300
O101        O  0.49249075  0.41160397  0.38753161    -0.77600
O102        O  0.44272040  0.37397106  0.38486298    -1.13700
O103        O  0.46886777  0.39221581  0.43931766    -0.72900
C104        C  0.47089931  0.37205991  0.44392624     0.97800
C105        C  0.38923437  0.33234841  0.35609612     0.94200
Al106      Al  0.44310563  0.37439340  0.34425295     1.55600
O107        O  0.41197688  0.35833024  0.43670970    -0.77500
C108        C  0.49737543  0.41512957  0.35945215     0.98400
C109        C  0.45209958  0.33208392  0.35637098     0.93300
O110        O  0.43627358  0.32467637  0.37878134    -0.82800
O111        O  0.34616206  0.44537420  0.55263786    -0.82300
C112        C  0.42539109  0.43765034  0.60878676     0.97100
O113        O  0.42109505  0.44619750  0.58443979    -0.71400
O114        O  0.38891909  0.44033122  0.54116342    -0.75000
Al115      Al  0.40067442  0.46199551  0.57651623     1.49000
C116        C  0.37287842  0.41606754  0.53632162     0.92300
O117        O  0.32984854  0.38952367  0.60960648    -0.81200
O118        O  0.34859042  0.43606566  0.65225374    -0.74800
Al119      Al  0.34249341  0.41980781  0.58331983     1.90100
O120        O  0.36348616  0.39882022  0.63843615    -0.73800
O121        O  0.39826886  0.47291333  0.64881118    -0.73700
O122        O  0.41235711  0.43558043  0.63269519    -0.79300
O123        O  0.41877872  0.48845750  0.60586472    -0.77600
O124        O  0.37455856  0.43925151  0.60007149    -1.13700
O125        O  0.38281951  0.48059288  0.56606117    -0.72900
C126        C  0.36214429  0.46997382  0.55015885     0.97800
C127        C  0.34071425  0.38253011  0.62935202     0.94200
Al128      Al  0.38006425  0.43601583  0.63952955     1.55600
O129        O  0.35458606  0.40269858  0.55522693    -0.77500
C130        C  0.41557896  0.49162694  0.63340463     0.98400
C131        C  0.33229970  0.44000354  0.63731483     0.93300
O132        O  0.32886929  0.43557785  0.60906121    -0.82800
O133        O  0.27726600  0.99431399  0.22030212    -0.82300
C134        C  0.18261673  0.42085367  0.27770421     0.97100
O135        O  0.19299414  0.42026021  0.25299613    -0.71400
O136        O  0.20020031  0.45745901  0.21523480    -0.75000
Al137      Al  0.22155588  0.44419392  0.22941843     1.49000
C138        C  0.20892229  0.48019639  0.20394734     0.92300
O139        O  0.23417894  0.01391663  0.26653526    -0.81200
O140        O  0.26879288  0.48047875  0.30437272    -0.74800
Al141      Al  0.25441143  0.00249639  0.24380118     1.90100
O142        O  0.22829850  0.49094800  0.30804909    -0.73800
O143        O  0.23562340  0.43057067  0.29167172    -0.73700
O144        O  0.19411673  0.44077501  0.29493067    -0.79300
O145        O  0.24157739  0.42885558  0.24248575    -0.77600
O146        O  0.23633793  0.46985047  0.25684342    -1.13700
O147        O  0.24667442  0.46094797  0.19758370    -0.72900
C148        C  0.27084815  0.47746433  0.20020256     0.97800
C149        C  0.22788055  0.00971187  0.29437382     0.94200
Al150      Al  0.23221450  0.46165984  0.29641794     1.55600
O151        O  0.23222731  0.49871592  0.20951902    -0.77500
C152        C  0.24135735  0.42068174  0.26920496     0.98400
C153        C  0.28643953  0.00368885  0.29492047     0.93300
O154        O  0.28102522  0.01499873  0.27414998    -0.82800
O155        O  0.06612329  0.38610763  0.10536697    -0.82300
C156        C  0.15758788  0.40673756  0.03816837     0.97100
O157        O  0.14922588  0.39539542  0.06319468    -0.71400
O158        O  0.14490814  0.42751506  0.10119890    -0.75000
Al159      Al  0.12232985  0.39197757  0.08965567     1.49000
C160        C  0.13692695  0.44181191  0.11363357     0.92300
O161        O  0.10625720  0.44739958  0.05454990    -0.81200
O162        O  0.06913432  0.37884713  0.01932234    -0.74800
Al163      Al  0.08748288  0.41649820  0.07925264     1.90100
O164        O  0.11063686  0.42939170  0.01250167    -0.73800
O165        O  0.10112224  0.36040772  0.02955920    -0.73700
O166        O  0.14330946  0.41190667  0.02160712    -0.79300
O167        O  0.10102011  0.35611414  0.07934876    -0.77600
O168        O  0.10517105  0.40145435  0.06395889    -1.13700
O169        O  0.10020188  0.38545505  0.12428989    -0.72900
C170        C  0.07591120  0.37767449  0.12506435     0.97800
C171        C  0.11282156  0.44933635  0.02678117     0.94200
Al172      Al  0.10588259  0.39562210  0.02414370     1.55600
O173        O  0.11305611  0.43619295  0.11099641    -0.77500
C174        C  0.09694761  0.34606479  0.05297150     0.98400
C175        C  0.05300361  0.38527801  0.02937024     0.93300
O176        O  0.05901793  0.40129194  0.05118117    -0.82800
O177        O  0.01646898  0.28056322  0.22703312    -0.82300
C178        C  0.08429489  0.25654704  0.29601488     0.97100
O179        O  0.08803881  0.26663127  0.26993316    -0.71400
O180        O  0.05433844  0.23991800  0.22782871    -0.75000
Al181      Al  0.06789221  0.27465105  0.24261277     1.49000
C182        C  0.03302535  0.22703388  0.21352329     0.92300
O183        O  0.49988601  0.22020271  0.27616486    -0.81200
O184        O  0.02643659  0.28902506  0.30890679    -0.74800
Al185      Al  0.51140154  0.25202640  0.25422378     1.90100
O186        O  0.01484515  0.23743727  0.31763494    -0.73800
O187        O  0.07685422  0.30489237  0.30424396    -0.73700
O188        O  0.06504900  0.25321220  0.31196737    -0.79300
O189        O  0.08494129  0.31031180  0.25513355    -0.77600
O190        O  0.04052750  0.26514051  0.26710197    -1.13700
O191        O  0.05389723  0.28546266  0.20944128    -0.72900
C192        C  0.03603538  0.29172332  0.20918131     0.97800
C193        C  0.50159485  0.21815733  0.30461586     0.94200
Al194      Al  0.04524111  0.27070235  0.30719366     1.55600
O195        O  0.01475187  0.23243048  0.21692086    -0.77500
C196        C  0.08987313  0.31910653  0.28194333     0.98400
C197        C  0.50651860  0.28244626  0.30403656     0.93300
O198        O  0.49647913  0.26485364  0.28372731    -0.82800
O199        O  0.11741663  0.16873332  0.09920711    -0.82300
C200        C  0.09576549  0.24766587  0.05272696     0.97100
O201        O  0.11254394  0.25027689  0.07240247    -0.71400
O202        O  0.08881723  0.21471705  0.11362208    -0.75000
Al203      Al  0.12016769  0.22581932  0.09178732     1.49000
C204        C  0.07167489  0.19188805  0.12223368     0.92300
O205        O  0.05514913  0.15677187  0.05754164    -0.81200
O206        O  0.12073538  0.18944524  0.01371104    -0.74800
Al207      Al  0.08760945  0.16576239  0.07704771     1.90100
O208        O  0.07021472  0.17920856  0.01550629    -0.73800
O209        O  0.13789710  0.23939757  0.02618035    -0.73700
O210        O  0.08670207  0.22847392  0.03414717    -0.79300
O211        O  0.15343318  0.23982793  0.07163399    -0.77600
O212        O  0.10383624  0.19973477  0.06491702    -1.13700
O213        O  0.13151296  0.20810818  0.11842698    -0.72900
C214        C  0.13144117  0.18653670  0.11810452     0.97800
C215        C  0.05157454  0.16136741  0.03057948     0.94200
Al216      Al  0.10381214  0.20822599  0.02577932     1.55600
O217        O  0.07196272  0.17141204  0.11303591    -0.77500
C218        C  0.15700522  0.24826026  0.04459245     0.98400
C219        C  0.11556238  0.16643967  0.02118032     0.93300
O220        O  0.10010273  0.15424625  0.04307510    -0.82800
O221        O  0.32505084  0.43604999  0.09713972    -0.82300
C222        C  0.24909108  0.34717305  0.02994183     0.97100
O223        O  0.24467714  0.35950510  0.05057212    -0.71400
O224        O  0.27370473  0.35982296  0.09521036    -0.75000
Al225      Al  0.26873850  0.38611136  0.07802115     1.49000
C226        C  0.29370002  0.36256713  0.10926964     0.92300
O227        O  0.33676087  0.38698103  0.05144914    -0.81200
O228        O  0.31646960  0.43195231  0.00969941    -0.74800
Al229      Al  0.32869724  0.41025849  0.07303402     1.90100
O230        O  0.32123897  0.38812824  0.00662668    -0.73800
O231        O  0.26446130  0.40294368  0.01418338    -0.73700
O232        O  0.27045844  0.35814966  0.01536739    -0.79300
O233        O  0.26173048  0.41181963  0.06218943    -0.77600
O234        O  0.29730591  0.39750567  0.05521654    -1.13700
O235        O  0.28471509  0.40903455  0.11182051    -0.72900
C236        C  0.30599957  0.43055262  0.11479238     0.97800
C237        C  0.33498017  0.38213248  0.02332249     0.94200
Al238      Al  0.29357393  0.39557349  0.01476703     1.55600
O239        O  0.31596719  0.38362020  0.10587748    -0.77500
C240        C  0.25564627  0.41189531  0.03471844     0.98400
C241        C  0.33915005  0.44598288  0.02094820     0.93300
O242        O  0.34685158  0.43834856  0.04376030    -0.82800
O243        O  0.22324071  0.22915007  0.21914784    -0.82300
C244        C  0.23363532  0.31842527  0.27550832     0.97100
O245        O  0.22450491  0.30520695  0.25147279    -0.71400
O246        O  0.23203383  0.27943167  0.20872854    -0.75000
Al247      Al  0.20855584  0.26924813  0.24243783     1.49000
C248        C  0.25602242  0.28599743  0.20512816     0.92300
O249        O  0.27717778  0.26520184  0.27957627    -0.81200
O250        O  0.22854767  0.24007535  0.31982670    -0.74800
Al251      Al  0.24773682  0.24958932  0.25177488     1.90100
O252        O  0.26954703  0.29123646  0.30785449    -0.73800
O253        O  0.19533155  0.25742401  0.31452862    -0.73700
O254        O  0.23583661  0.30762438  0.29946853    -0.79300
O255        O  0.18111943  0.26089651  0.26999671    -0.77600
O256        O  0.22958229  0.26432843  0.26727209    -1.13700
O257        O  0.18924755  0.23318390  0.23061311    -0.72900
C258        C  0.19913846  0.22196152  0.21550239     0.97800
C259        C  0.28489431  0.28330614  0.29928318     0.94200
Al260      Al  0.23221849  0.27327482  0.30681710     1.55600
O261        O  0.26756077  0.27901103  0.22439008    -0.77500
C262        C  0.17716474  0.25546146  0.29768240     0.98400
C263        C  0.22345270  0.21912648  0.30532455     0.93300
O264        O  0.22890837  0.21975596  0.27727853    -0.82800
O265        O  0.38904478  0.06476835  0.89476002    -0.82300
C266        C  0.40275625  0.14969370  0.97005804     0.97100
O267        O  0.38963101  0.14217539  0.94566033    -0.71400
O268        O  0.42019341  0.14263682  0.90296840    -0.75000
Al269      Al  0.38677897  0.11699393  0.91538731     1.49000
C270        C  0.43532855  0.13840996  0.88670997     0.92300
O271        O  0.44830713  0.11005445  0.94458057    -0.81200
O272        O  0.37736050  0.06142047  0.97660458    -0.74800
Al273      Al  0.41816718  0.08825644  0.92031353     1.90100
O274        O  0.42762150  0.10278026  0.98838543    -0.73800
O275        O  0.35757345  0.09361200  0.97518370    -0.73700
O276        O  0.40930319  0.13507274  0.98384595    -0.79300
O277        O  0.35249372  0.09270687  0.92596557    -0.77600
O278        O  0.39952924  0.10115892  0.93796732    -1.13700
O279        O  0.38055621  0.09553403  0.87950468    -0.72900
C280        C  0.37712318  0.07238443  0.87712282     0.97800
C281        C  0.44894532  0.11159372  0.97334668     0.94200
Al282      Al  0.39341246  0.09827186  0.97781557     1.55600
O283        O  0.43414895  0.11596131  0.88829087    -0.77500
C284        C  0.34280573  0.08923580  0.95209075     0.98400
C285        C  0.38852436  0.04886031  0.96797145     0.93300
O286        O  0.40672687  0.05849542  0.94812636    -0.82800
O287        O  0.99710133  0.27710276  0.76289607    -0.82300
C288        C  0.42427414  0.17982603  0.71315065     0.97100
O289        O  0.42073144  0.19247612  0.73412878    -0.71400
O290        O  0.45589972  0.20171712  0.77492688    -0.75000
Al291      Al  0.44441107  0.22306914  0.75648779     1.49000
C292        C  0.47779878  0.20992010  0.78780673     0.92300
O293        O  0.01193522  0.22959938  0.71895860    -0.81200
O294        O  0.48137538  0.26588963  0.68170349    -0.74800
Al295      Al  0.00231163  0.25191290  0.73967283     1.90100
O296        O  0.49295009  0.22597790  0.68026459    -0.73800
O297        O  0.43158246  0.23212553  0.69229703    -0.73700
O298        O  0.44356806  0.19156747  0.69516706    -0.79300
O299        O  0.43040471  0.24323618  0.73967130    -0.77600
O300        O  0.47070007  0.23545319  0.73013217    -1.13700
O301        O  0.46134413  0.25028009  0.78610076    -0.72900
C302        C  0.48155275  0.27296061  0.78581218     0.97800
C303        C  0.00851580  0.22301626  0.69129922     0.94200
Al304      Al  0.46315654  0.22949818  0.69058640     1.55600
O305        O  0.99639817  0.22975791  0.77516804    -0.77500
C306        C  0.42228729  0.24066485  0.71261506     0.98400
C307        C  0.00285148  0.28193768  0.68603052     0.93300
O308        O  0.01460091  0.27723422  0.70718233    -0.82800
O309        O  0.44308040  0.32138072  0.89493844    -0.82300
C310        C  0.35238623  0.24710228  0.95748114     0.97100
O311        O  0.36608811  0.24128608  0.93990114    -0.71400
O312        O  0.37798440  0.26664272  0.88927910    -0.75000
Al313      Al  0.39880800  0.26304939  0.91831425     1.49000
C314        C  0.37654913  0.28544786  0.87733646     0.92300
O315        O  0.39231664  0.33094032  0.93889764    -0.81200
O316        O  0.43628564  0.31082600  0.98517072    -0.74800
Al317      Al  0.41690675  0.32314946  0.91928693     1.90100
O318        O  0.39569550  0.31921347  0.98441304    -0.73800
O319        O  0.40266272  0.25859588  0.98641683    -0.73700
O320        O  0.36282931  0.26828201  0.97304674    -0.79300
O321        O  0.42004843  0.25567732  0.94425987    -0.77600
O322        O  0.40531223  0.29211725  0.93814780    -1.13700
O323        O  0.42867548  0.27884265  0.89301871    -0.72900
C324        C  0.44482393  0.30205346  0.88494459     0.97800
C325        C  0.38849276  0.33126535  0.96694109     0.94200
Al326      Al  0.39998132  0.28962728  0.97851226     1.55600
O327        O  0.39133692  0.30902069  0.88647406    -0.77500
C328        C  0.41415423  0.24896520  0.97140985     0.98400
C329        C  0.45152415  0.33306032  0.97292597     0.93300
O330        O  0.44459543  0.34132680  0.94968092    -0.82800
O331        O  0.17686122  0.11528184  0.88928715    -0.82300
C332        C  0.24768569  0.09234112  0.95260366     0.97100
O333        O  0.25267641  0.10814260  0.93074554    -0.71400
O334        O  0.22094428  0.08207569  0.88661225    -0.75000
Al335      Al  0.23111471  0.11508627  0.90476730     1.49000
C336        C  0.19925607  0.06687090  0.87381318     0.92300
O337        O  0.16085610  0.05281551  0.93423075    -0.81200
O338        O  0.18953486  0.12237395  0.97305658    -0.80200
Al339      Al  0.17075269  0.08488498  0.91278675     1.90100
O340        O  0.17731839  0.07052166  0.97857544    -0.73800
O341        O  0.23997177  0.13780561  0.96872847    -0.73700
O342        O  0.22746638  0.08524078  0.96892115    -0.79300
O343        O  0.24430624  0.14966128  0.92094677    -0.77600
O344        O  0.20318334  0.10119298  0.92883935    -1.13700
O345        O  0.21620870  0.12535540  0.87299771    -0.72900
C346        C  0.19624118  0.12815291  0.87172802     0.97800
C347        C  0.16271666  0.05040727  0.96251789     0.94200
Al348      Al  0.20798308  0.10377208  0.96907014     1.55600
O349        O  0.17910524  0.06909483  0.87877000    -0.77500
C350        C  0.25108485  0.15530464  0.94840503     0.98400
C351        C  0.16658206  0.11504404  0.96344930     0.93300
O352        O  0.15582976  0.09720341  0.94331335    -0.82800
O353        O  0.28815391  0.51216818  0.76680811    -0.82300
C354        C  0.26389606  0.07895326  0.69772604     0.97100
O355        O  0.27584037  0.08410869  0.72284071    -0.71400
O356        O  0.24772145  0.05082471  0.76511526    -0.75000
Al357      Al  0.28243245  0.06331884  0.75114776     1.49000
C358        C  0.23482557  0.02968471  0.77987989     0.92300
O359        O  0.22593119  0.49242785  0.72097796    -0.81200
O360        O  0.29623098  0.02148489  0.68659321    -0.74800
Al361      Al  0.25739579  0.50360393  0.74308679     1.90100
O362        O  0.24435559  0.00868241  0.67738460    -0.73800
O363        O  0.31203147  0.07186054  0.68980368    -0.73700
O364        O  0.25954835  0.05887606  0.68260977    -0.79300
O365        O  0.31757995  0.07812487  0.73903019    -0.77600
O366        O  0.27237124  0.03548447  0.72736460    -1.13700
O367        O  0.29203309  0.04924114  0.78554409    -0.72900
C368        C  0.29806666  0.03117872  0.78657132     0.97800
C369        C  0.22391856  0.49390695  0.69253905     0.94200
Al370      Al  0.27759341  0.03973676  0.68738187     1.55600
O371        O  0.24069758  0.51195615  0.77623119    -0.77500
C372        C  0.32692062  0.08314952  0.71246664     0.98400
C373        C  0.28720462  0.49757296  0.69347244     0.93300
O374        O  0.26986270  0.48765525  0.71401642    -0.82800
O375        O  0.23284067  0.21667258  0.76117275    -0.82300
C376        C  0.32110474  0.22877845  0.69610190     0.97100
O377        O  0.30753097  0.20955479  0.71379220    -0.71400
O378        O  0.30415357  0.23169066  0.76284058    -0.75000
Al379      Al  0.27882725  0.20393422  0.73971756     1.49000
C380        C  0.30230758  0.24928621  0.77739060     0.92300
O381        O  0.28518483  0.27620040  0.71636123    -0.81200
O382        O  0.23707758  0.20993890  0.67430820    -0.74800
Al383      Al  0.25981289  0.24477642  0.73706378     1.90100
O384        O  0.27907984  0.25915658  0.67088526    -0.73800
O385        O  0.26777525  0.18866704  0.67374503    -0.73700
O386        O  0.31058254  0.23933424  0.68065024    -0.79300
O387        O  0.25356268  0.17343339  0.71913112    -0.77600
O388        O  0.27063211  0.22455975  0.71872028    -1.13700
O389        O  0.25314868  0.19449935  0.77035143    -0.72900
C390        C  0.23476464  0.19911839  0.77578924     0.97800
C391        C  0.28771770  0.27913841  0.68792609     0.94200
Al392      Al  0.27332844  0.22437582  0.67815269     1.55600
O393        O  0.28513640  0.25567879  0.77045497    -0.77500
C394        C  0.25628622  0.16927406  0.69172964     0.98400
C395        C  0.22318778  0.21856058  0.68635185     0.93300
O396        O  0.23215590  0.23631981  0.70704587    -0.82800
C397        C  0.25518324  0.09705729  0.68665731    -0.00600
C398        C  0.23521798  0.09822920  0.70283193    -0.12500
C399        C  0.23183827  0.12021633  0.70030338     0.01600
C400        C  0.24991335  0.14222567  0.68288724    -0.00700
C401        C  0.26727314  0.13931127  0.66321936    -0.12500
C402        C  0.26979016  0.11662319  0.66479422     0.01500
H403        H  0.22347694  0.08280520  0.71902788     0.14500
H404        H  0.28078844  0.15575374  0.64903114     0.14500
C405        C  0.28894692  0.11490236  0.64568681     0.36100
C406        C  0.21071993  0.12034736  0.71722024     0.36000
N407        N  0.30406666  0.11350732  0.62991685    -0.44200
N408        N  0.19344735  0.12000208  0.73049564    -0.44200
C409        C  0.19702309  0.14742170  0.84940531    -0.00600
C410        C  0.21479462  0.17433211  0.85509112    -0.12500
C411        C  0.22472699  0.19268474  0.83122925     0.01600
C412        C  0.21678799  0.18419082  0.80104105    -0.00700
C413        C  0.19688439  0.15787207  0.79580286    -0.12500
C414        C  0.18702309  0.13942420  0.81972977     0.01500
H415        H  0.22290154  0.18053553  0.87777794     0.14500
H416        H  0.19084522  0.15119364  0.77265132     0.14500
C417        C  0.16886630  0.11190829  0.81288010     0.36100
C418        C  0.24532884  0.21945241  0.83781210     0.36000
N419        N  0.15429165  0.08982512  0.80751445    -0.44200
N420        N  0.26186109  0.24087307  0.84313973    -0.44200
C421        C  0.21625831  0.02878555  0.80313671    -0.00600
C422        C  0.22046722  0.02404048  0.83324120    -0.12500
C423        C  0.21161081  0.03331389  0.85732522     0.01600
C424        C  0.19876637  0.04787271  0.85123259    -0.00700
C425        C  0.19083412  0.04875022  0.82137808    -0.12500
C426        C  0.19931682  0.03901987  0.79726725     0.01500
H427        H  0.23279431  0.01541055  0.83796893     0.14500
H428        H  0.18005029  0.05901239  0.81659670     0.14500
C429        C  0.19101084  0.04022917  0.76669010     0.36100
C430        C  0.21684272  0.02865624  0.88808862     0.36000
N431        N  0.18374076  0.04054739  0.74230447    -0.44200
N432        N  0.22064297  0.02448948  0.91274229    -0.44200
C433        C  0.32403072  0.22787264  0.96027977    -0.00600
C434        C  0.31605407  0.20797695  0.98209618    -0.12500
C435        C  0.29111439  0.18523005  0.98063791     0.01600
C436        C  0.27401872  0.18167709  0.95601172    -0.00700
C437        C  0.28113875  0.20294157  0.93587749    -0.12500
C438        C  0.30572711  0.22619917  0.93835254     0.01500
H439        H  0.32983388  0.20960971  0.99945143     0.14500
H440        H  0.26781780  0.20111836  0.91767195     0.14500
C441        C  0.31147860  0.24824751  0.91875084     0.36100
C442        C  0.28459410  0.16544803  0.00382138     0.36000
N443        N  0.31541307  0.26611859  0.90369795    -0.44200
N444        N  0.27955245  0.14998658  0.02286572    -0.44200
C445        C  0.35670710  0.27824342  0.85249878    -0.00600
C446        C  0.33897741  0.25101931  0.84817003    -0.12500
C447        C  0.32045551  0.24180026  0.82496965     0.01600
C448        C  0.31917710  0.25982957  0.80464950    -0.00700
C449        C  0.33589026  0.28715056  0.80931087    -0.12500
C450        C  0.35471103  0.29651416  0.83303261     0.01500
H451        H  0.33936062  0.23642233  0.86313098     0.14500
H452        H  0.33491160  0.30107312  0.79385323     0.14500
C453        C  0.37209286  0.32469713  0.83613401     0.36100
C454        C  0.30283419  0.21343612  0.82286339     0.36000
N455        N  0.38604468  0.34733180  0.83854767    -0.44200
N456        N  0.28891692  0.19071544  0.82154798    -0.44200
C457        C  0.35529452  0.10381053  0.70921890    -0.00600
C458        C  0.37003086  0.11292162  0.73617904    -0.12500
C459        C  0.39437098  0.13602737  0.73693115     0.01600
C460        C  0.40453969  0.15134799  0.71035042    -0.00700
C461        C  0.39178284  0.14071915  0.68247556    -0.12500
C462        C  0.36742325  0.11672461  0.68164340     0.01500
H463        H  0.36191135  0.10277461  0.75751874     0.14500
H464        H  0.39986183  0.15193497  0.66172578     0.14500
C465        C  0.35532562  0.10626726  0.65251035     0.36100
C466        C  0.40752268  0.14399019  0.76603611     0.36000
N467        N  0.34602785  0.09767480  0.62901304    -0.44200
N468        N  0.41713273  0.14929342  0.78990499    -0.44200
C469        C  0.39981146  0.24484511  0.70521383    -0.00600
C470        C  0.38672794  0.23541224  0.67709236    -0.12500
C471        C  0.36171028  0.23246417  0.67214500     0.01600
C472        C  0.34961660  0.23909608  0.69545241    -0.00700
C473        C  0.36369468  0.25121219  0.72201490    -0.12500
C474        C  0.38869770  0.25442445  0.72704028     0.01500
H475        H  0.39509937  0.22854275  0.65970868     0.14500
H476        H  0.35440375  0.25673656  0.73976950     0.14500
C477        C  0.40150057  0.26628369  0.75553175     0.36100
C478        C  0.34793012  0.22079469  0.64408231     0.36000
N479        N  0.41144175  0.27573921  0.77850053    -0.44200
N480        N  0.33674730  0.21156644  0.62161366    -0.44200
C481        C  0.46422427  0.30550865  0.86123863    -0.00600
C482        C  0.47930516  0.29310480  0.86528752    -0.12500
C483        C  0.48970597  0.28652979  0.84016979     0.01600
C484        C  0.48401050  0.29128913  0.81047920    -0.00700
C485        C  0.47197785  0.30675551  0.80665128    -0.12500
C486        C  0.46245603  0.31431440  0.83190116     0.01500
H487        H  0.48116874  0.28668055  0.88783511     0.14500
H488        H  0.46764462  0.31062338  0.78386677     0.14500
C489        C  0.44805943  0.32814180  0.82680513     0.36100
C490        C  0.50437117  0.27297470  0.84515064     0.36000
N491        N  0.43660249  0.33932668  0.82286980    -0.44200
N492        N  0.01525612  0.26142456  0.84714661    -0.44200
C493        C  0.31460107  0.08240009  0.95441934    -0.00600
C494        C  0.30402804  0.08439906  0.98256470    -0.12500
C495        C  0.28005199  0.08475852  0.98377849     0.01600
C496        C  0.26617261  0.08229944  0.95665985    -0.00700
C497        C  0.27487455  0.07669827  0.92960024    -0.12500
C498        C  0.29901719  0.07775516  0.92775436     0.01500
H499        H  0.31542346  0.08785322  0.00320955     0.14500
H500        H  0.26425167  0.07490666  0.90866677     0.14500
C501        C  0.30823191  0.07817989  0.89709721     0.36100
C502        C  0.27121499  0.08962970  0.01244792     0.36000
N503        N  0.31528344  0.07957095  0.87221187    -0.44200
N504        N  0.26403016  0.09330510  0.03553417    -0.44200
C505        C  0.31838224  0.03404999  0.80877341    -0.00600
C506        C  0.31160571  0.02796025  0.83950908    -0.12500
C507        C  0.33129174  0.03727936  0.86210849     0.01600
C508        C  0.35797192  0.05442147  0.85413564    -0.00700
C509        C  0.36485003  0.05855359  0.82324249    -0.12500
C510        C  0.34531129  0.04766635  0.80058826     0.01500
H511        H  0.29094139  0.01713892  0.84600086     0.14500
H512        H  0.38535032  0.07122721  0.81684882     0.14500
C513        C  0.35317127  0.05128904  0.76904160     0.36100
C514        C  0.32352345  0.03089095  0.89354675     0.36000
N515        N  0.35934898  0.05361472  0.74371477    -0.44200
N516        N  0.31732678  0.02574066  0.91873744    -0.44200
C517        C  0.41749284  0.22714164  0.98334607    -0.00600
C518        C  0.43724902  0.22315404  0.97040617    -0.12500
C519        C  0.43458987  0.19794079  0.97022039     0.01600
C520        C  0.41121740  0.17636630  0.98133713    -0.00700
C521        C  0.39360758  0.18089279  0.99836113    -0.12500
C522        C  0.39732515  0.20651653  0.00064123     0.01500
H523        H  0.45357063  0.23916520  0.95828230     0.14500
H524        H  0.37625742  0.16429651  0.00834291     0.14500
C525        C  0.37954663  0.21073792  0.01952725     0.36100
C526        C  0.45480478  0.19406927  0.95622868     0.36000
N527        N  0.36585268  0.21424568  0.03554772    -0.44200
N528        N  0.47087561  0.19069627  0.94516336    -0.44200
C529        C  0.45261580  0.15965045  0.86455079    -0.00600
C530        C  0.46593954  0.15438548  0.84112442    -0.12500
C531        C  0.47755823  0.17217123  0.81657722     0.01600
C532        C  0.47716225  0.19618203  0.81612389    -0.00700
C533        C  0.46626251  0.20248823  0.84069352    -0.12500
C534        C  0.45332232  0.18451564  0.86401853     0.01500
H535        H  0.46548885  0.13554529  0.84066034     0.14500
H536        H  0.46457993  0.22021558  0.83952747     0.14500
C537        C  0.43796074  0.19133513  0.88404831     0.36100
C538        C  0.48796873  0.16468225  0.79103402     0.36000
N539        N  0.42518261  0.19699807  0.89896369    -0.44200
N540        N  0.49636392  0.15882950  0.77044831    -0.44200
C541        C  0.35634691  0.47215245  0.00747702    -0.00600
C542        C  0.36364894  0.49452938  0.02553217    -0.12500
C543        C  0.37605972  0.01986470  0.01429245     0.01600
C544        C  0.38038918  0.02309305  0.98247824    -0.00700
C545        C  0.37454838  0.00095873  0.96441278    -0.12500
C546        C  0.36228084  0.47520555  0.97607070     0.01500
H547        H  0.35905526  0.49217475  0.04965151     0.14500
H548        H  0.37800752  0.00331479  0.94008022     0.14500
C549        C  0.35575146  0.45258271  0.95686050     0.36100
C550        C  0.38244052  0.04203362  0.03425757     0.36000
N551        N  0.35053073  0.43444062  0.94149289    -0.44200
N552        N  0.38736857  0.05969973  0.05031794    -0.44200
C553        C  0.34917107  0.36946949  0.00931536    -0.00600
C554        C  0.35194513  0.37000888  0.97742704    -0.12500
C555        C  0.36494849  0.35824732  0.96293220     0.01600
C556        C  0.37538230  0.34527463  0.98040519    -0.00700
C557        C  0.37267659  0.34489488  0.01229720    -0.12500
C558        C  0.35985135  0.35671677  0.02677398     0.01500
H559        H  0.34404301  0.37982993  0.96360689     0.14500
H560        H  0.38047867  0.33508152  0.02629870     0.14500
C561        C  0.35758928  0.35477548  0.05953709     0.36100
C562        C  0.36722780  0.35997406  0.93020970     0.36000
N563        N  0.35584955  0.35322300  0.08577640    -0.44200
N564        N  0.36911121  0.36149633  0.90398662    -0.44200
C565        C  0.28912868  0.34073863  0.13071336    -0.00600
C566        C  0.26506088  0.31691812  0.12749534    -0.12500
C567        C  0.25484511  0.29824666  0.15063954     0.01600
C568        C  0.26949761  0.30202879  0.17763745    -0.00700
C569        C  0.29521572  0.32412016  0.17944530    -0.12500
C570        C  0.30503232  0.34363222  0.15632962     0.01500
H571        H  0.25270445  0.31377925  0.10779904     0.14500
H572        H  0.30670200  0.32732944  0.19997324     0.14500
C573        C  0.33043104  0.36711029  0.16055661     0.36100
C574        C  0.22779974  0.27715749  0.14713933     0.36000
N575        N  0.35076450  0.38602505  0.16393863    -0.44200
N576        N  0.20582362  0.26108543  0.14442805    -0.44200
C577        C  0.02530035  0.14601813  0.01619088    -0.00600
C578        C  0.00288877  0.14203225  0.03222497    -0.12500
C579        C  0.47847143  0.13257148  0.02007298     0.01600
C580        C  0.47501863  0.12368043  0.98942382    -0.00700
C581        C  0.99759050  0.12450219  0.97200775    -0.12500
C582        C  0.02243697  0.13662220  0.98601429     0.01500
H583        H  0.00501884  0.14927028  0.05540654     0.14500
H584        H  0.99582822  0.11757623  0.94873726     0.14500
C585        C  0.04463608  0.13869528  0.96914641     0.36100
C586        C  0.45707133  0.13136103  0.03778731     0.36000
N587        N  0.06244624  0.14030371  0.95575696    -0.44200
N588        N  0.44000655  0.13059852  0.05197578    -0.44200
C589        C  0.12811480  0.15364515  0.00435267    -0.00600
C590        C  0.11408928  0.12600346  0.00022948    -0.12500
C591        C  0.12587028  0.11300773  0.98584844     0.01600
C592        C  0.15234347  0.12773202  0.97612471    -0.00700
C593        C  0.16618908  0.15531428  0.97973979    -0.12500
C594        C  0.15428839  0.16840984  0.99331735     0.01500
H595        H  0.09392397  0.11452732  0.00837062     0.14500
H596        H  0.18651127  0.16668736  0.97201304     0.14500
C597        C  0.16989840  0.19685759  0.99661326     0.36100
C598        C  0.11089244  0.08452474  0.98257867     0.36000
N599        N  0.18252647  0.21966031  0.99896272    -0.44200
N600        N  0.09903609  0.06170962  0.97980352    -0.44200
C601        C  0.18284971  0.27061259  0.03492271    -0.00600
C602        C  0.18303004  0.28861487  0.01348263    -0.12500
C603        C  0.20595420  0.31288687  0.00821958     0.01600
C604        C  0.22901096  0.31945096  0.02469260    -0.00700
C605        C  0.22978441  0.30031212  0.04316898    -0.12500
C606        C  0.20695568  0.27586761  0.04821027     0.01500
H607        H  0.16489957  0.28449032  0.00212462     0.14500
H608        H  0.24787849  0.30508943  0.05502255     0.14500
C609        C  0.20892203  0.25656283  0.06673676     0.36100
C610        C  0.20521083  0.33093729  0.98636853     0.36000
N611        N  0.21087891  0.24102556  0.08109202    -0.44200
N612        N  0.20447890  0.34488569  0.96819718    -0.44200
C613        C  0.14749420  0.18290458  0.14156337    -0.00600
C614        C  0.17480510  0.19439113  0.13693259    -0.12500
C615        C  0.19244677  0.20353632  0.16172419     0.01600
C616        C  0.18265828  0.20273311  0.19139897    -0.00700
C617        C  0.15528114  0.18750823  0.19610840    -0.12500
C618        C  0.13779932  0.17693152  0.17151169     0.01500
H619        H  0.18243312  0.19813743  0.11393495     0.14500
H620        H  0.14743798  0.18525307  0.21891072     0.14500
C621        C  0.10990407  0.16081357  0.17739759     0.36100
C622        C  0.22041634  0.21601462  0.15572146     0.36000
N623        N  0.08766143  0.14705057  0.18228379    -0.44200
N624        N  0.24283867  0.22588775  0.15093038    -0.44200
C625        C  0.10396074  0.25021415  0.30789899    -0.00600
C626        C  0.10497701  0.22863311  0.29532208    -0.12500
C627        C  0.12826267  0.22743846  0.29674620     0.01600
C628        C  0.15108783  0.24858657  0.30979121    -0.00700
C629        C  0.14899470  0.26822109  0.32602628    -0.12500
C630        C  0.12542854  0.26903678  0.32538806     0.01500
H631        H  0.08834212  0.21385738  0.28240389     0.14500
H632        H  0.16650670  0.28453891  0.33619079     0.14500
C633        C  0.12476917  0.29103834  0.33976087     0.36100
C634        C  0.12890691  0.20520175  0.28312130     0.36000
N635        N  0.12427916  0.30867101  0.35132718    -0.44200
N636        N  0.12925178  0.18706619  0.27284092    -0.44200
C637        C  0.05157147  0.19010373  0.14382395    -0.00600
C638        C  0.05236022  0.18275095  0.17389103    -0.12500
C639        C  0.04196208  0.19110027  0.19734823     0.01600
C640        C  0.03142287  0.20765788  0.19069936    -0.00700
C641        C  0.02660114  0.21109415  0.16026775    -0.12500
C642        C  0.03638928  0.20207879  0.13673319     0.01500
H643        H  0.06321564  0.17284659  0.17940987     0.14500
H644        H  0.52023160  0.22579579  0.15949335     0.14500
C645        C  0.03285428  0.20741242  0.10552342     0.36100
C646        C  0.04375449  0.18393630  0.22830463     0.36000
N647        N  0.53083743  0.21483368  0.08449516    -0.44200
N648        N  0.04469285  0.17787454  0.25311184    -0.44200
C649        C  0.47780991  0.34932961  0.98677360    -0.00600
C650        C  0.47962339  0.34976065  0.01867370    -0.12500
C651        C  0.00371108  0.36675588  0.03139669     0.01600
C652        C  0.02700048  0.37432358  0.01464041    -0.00700
C653        C  0.02548260  0.37073411  0.98293139    -0.12500
C654        C  0.00114270  0.35890740  0.96794375     0.01500
H655        H  0.46174208  0.34020733  0.03225141     0.14500
H656        H  0.04335554  0.37668255  0.96989318     0.14500
C657        C  0.00055428  0.35385417  0.93569870     0.36100
C658        C  0.50479504  0.35987941  0.06599783     0.36000
N659        N  0.00044918  0.34984564  0.90988747    -0.44200
N660        N  0.50529772  0.35848956  0.09221928    -0.44200
C661        C  0.14796004  0.02400560  0.97760521    -0.00600
C662        C  0.14289843  0.02310393  0.00900014    -0.12500
C663        C  0.13039826  0.49949858  0.02498100     0.01600
C664        C  0.12374027  0.47524149  0.01027672    -0.00700
C665        C  0.12871360  0.47584760  0.97877579    -0.12500
C666        C  0.14021415  0.99989913  0.96211570     0.01500
H667        H  0.14867427  0.04138765  0.02128612     0.14500
H668        H  0.12374717  0.45761798  0.96683439     0.14500
C669        C  0.14563230  0.99919400  0.93015659     0.36100
C670        C  0.12584881  0.50100372  0.05703975     0.36000
N671        N  0.14999726  0.99855929  0.90457102    -0.44200
N672        N  0.12224343  0.50238992  0.08270883    -0.44200
C673        C  0.08933006  0.31758416  0.05041510    -0.00600
C674        C  0.08487406  0.30345463  0.07767188    -0.12500
C675        C  0.08514300  0.27971194  0.07861815     0.01600
C676        C  0.08836514  0.26850918  0.05150269    -0.00700
C677        C  0.08926425  0.28067173  0.02364509    -0.12500
C678        C  0.08997440  0.30519596  0.02285777     0.01500
H679        H  0.08325958  0.31197155  0.09900910     0.14500
H680        H  0.09159062  0.27215419  0.00270125     0.14500
C681        C  0.09268934  0.31758771  0.99368356     0.36100
C682        C  0.08427474  0.26876634  0.10832654     0.36000
N683        N  0.09469928  0.32740606  0.97023506    -0.44200
N684        N  0.08399389  0.26100266  0.13260232    -0.44200
C685        C  0.05989485  0.35776422  0.14874147    -0.00600
C686        C  0.03939169  0.33255054  0.13979488    -0.12500
C687        C  0.02969051  0.31072014  0.15983739     0.01600
C688        C  0.04018365  0.31413399  0.18948017    -0.00700
C689        C  0.05912447  0.33961772  0.19903319    -0.12500
C690        C  0.06910447  0.36120894  0.17909488     0.01500
H691        H  0.03254656  0.32938947  0.11641518     0.14500
H692        H  0.06742080  0.34236906  0.22173654     0.14500
C693        C  0.09009137  0.38638328  0.18997182     0.36100
C694        C  0.01046035  0.28473431  0.14892033     0.36000
N695        N  0.10698210  0.40631339  0.19915248    -0.44200
N696        N  0.99503716  0.26386048  0.14023018    -0.44200
C697        C  0.18476631  0.41439140  0.02974551    -0.00600
C698        C  0.20471043  0.43153578  0.04957660    -0.12500
C699        C  0.22975528  0.43425161  0.04841924     0.01600
C700        C  0.23484797  0.41857665  0.02800357    -0.00700
C701        C  0.21578938  0.40366667  0.00584629    -0.12500
C702        C  0.19066146  0.40125406  0.00673782     0.01500
H703        H  0.20015619  0.44143894  0.06746095     0.14500
H704        H  0.21960600  0.39191571  0.98972124     0.14500
C705        C  0.17060422  0.38304269  0.98606649     0.36100
C706        C  0.24936454  0.45235033  0.06951622     0.36000
N707        N  0.15470212  0.36836625  0.96935818    -0.44200
N708        N  0.26486893  0.46721618  0.08638514    -0.44200
C709        C  0.24512244  0.39741995  0.27323649    -0.00600
C710        C  0.24844876  0.38582384  0.24683633    -0.12500
C711        C  0.24600197  0.36081983  0.24735865     0.01600
C712        C  0.24078970  0.34674181  0.27508864    -0.00700
C713        C  0.23995035  0.35928066  0.30210114    -0.12500
C714        C  0.24189095  0.38433953  0.30143594     0.01500
H715        H  0.25135975  0.39554311  0.22502671     0.14500
H716        H  0.23625916  0.34889207  0.32357183     0.14500
C717        C  0.23940318  0.39541434  0.32985882     0.36100
C718        C  0.24750914  0.34982026  0.21842706     0.36000
N719        N  0.23741615  0.40427123  0.35265710    -0.44200
N720        N  0.24826472  0.34116968  0.19497046    -0.44200
C721        C  0.28944102  0.47289633  0.18180325    -0.00600
C722        C  0.29250184  0.45142891  0.19040543    -0.12500
C723        C  0.30085435  0.43901462  0.16945473     0.01600
C724        C  0.30730852  0.44862441  0.13944095    -0.00700
C725        C  0.30772612  0.47231259  0.13201026    -0.12500
C726        C  0.29824639  0.48416808  0.15279398     0.01500
H727        H  0.28602788  0.44279351  0.21276950     0.14500
H728        H  0.31276927  0.47992322  0.10903301     0.14500
C729        C  0.29389211  0.00508106  0.14416854     0.36100
C730        C  0.30046482  0.41503069  0.17853244     0.36000
N731        N  0.29136842  0.02269998  0.13657008    -0.44200
N732        N  0.30005915  0.39577642  0.18585951    -0.44200
C733        C  0.15902454  0.39583169  0.28671523    -0.00600
C734        C  0.16088403  0.37299038  0.28193671    -0.12500
C735        C  0.13854086  0.34799931  0.28114073     0.01600
C736        C  0.11354457  0.34513393  0.28695208    -0.00700
C737        C  0.11162255  0.36765408  0.29434531    -0.12500
C738        C  0.13428522  0.39314824  0.29392217     0.01500
H739        H  0.17989654  0.37488384  0.27647858     0.14500
H740        H  0.09236280  0.36549555  0.29860288     0.14500
C741        C  0.13144873  0.41610055  0.29874081     0.36100
C742        C  0.14182967  0.32593075  0.27202947     0.36000
N743        N  0.12908429  0.43446698  0.30268433    -0.44200
N744        N  0.14495214  0.30868427  0.26424191    -0.44200
C745        C  0.19213713  0.48333728  0.18147984    -0.00600
C746        C  0.20080932  0.48790683  0.15123505    -0.12500
C747        C  0.18239988  0.47794541  0.12750551     0.01600
C748        C  0.15520410  0.46305012  0.13428436    -0.00700
C749        C  0.14674946  0.46337861  0.16404027    -0.12500
C750        C  0.16514884  0.47343815  0.18778129     0.01500
H751        H  0.22166098  0.49637050  0.14619567     0.14500
H752        H  0.12582307  0.45314857  0.16922529     0.14500
C753        C  0.15456855  0.97027690  0.21808965     0.36100
C754        C  0.19171288  0.48193785  0.09649194     0.36000
N755        N  0.14688329  0.96881376  0.24267289    -0.44200
N756        N  0.19912710  0.48562143  0.07159228    -0.44200
C757        C  0.30078663  0.30589680  0.67384037    -0.00600
C758        C  0.29127942  0.30941969  0.64585756    -0.12500
C759        C  0.30367964  0.33398311  0.63084522     0.01600
C760        C  0.32658394  0.35564332  0.64351126    -0.00700
C761        C  0.33602145  0.35193708  0.67150683    -0.12500
C762        C  0.32334420  0.32756498  0.68670495     0.01500
H763        H  0.27393956  0.29288260  0.63570870     0.14500
H764        H  0.35338579  0.36826225  0.68186461     0.14500
C765        C  0.33463112  0.32512387  0.71484739     0.36100
C766        C  0.29256801  0.33611967  0.60239388     0.36000
N767        N  0.34378513  0.32325222  0.73736546    -0.44200
N768        N  0.28357939  0.33783538  0.57965256    -0.44200
C769        C  0.31881220  0.45256611  0.65212619    -0.00600
C770        C  0.31731229  0.47227287  0.63558477    -0.12500
C771        C  0.30689830  0.48687834  0.64847612     0.01600
C772        C  0.29748598  0.48175990  0.67878735    -0.00700
C773        C  0.29820182  0.46140203  0.69513741    -0.12500
C774        C  0.30907873  0.44697115  0.68213475     0.01500
H775        H  0.32500642  0.47682367  0.61254522     0.14500
H776        H  0.29082149  0.45716839  0.71828096     0.14500
C777        C  0.30966018  0.42637296  0.69971482     0.36100
C778        C  0.30594015  0.50667976  0.62959572     0.36000
N779        N  0.31013252  0.40982968  0.71374704    -0.44200
N780        N  0.30534418  0.52251858  0.61430038    -0.44200
C781        C  0.31169966  0.29490114  0.31355751    -0.00600
C782        C  0.31542113  0.30566685  0.34310300    -0.12500
C783        C  0.34008752  0.31706842  0.35773357     0.01600
C784        C  0.36202712  0.31811447  0.34281852    -0.00700
C785        C  0.35832913  0.30722731  0.31334144    -0.12500
C786        C  0.33356046  0.29556628  0.29880167     0.01500
H787        H  0.29893303  0.30528336  0.35492203     0.14500
H788        H  0.37498284  0.30804276  0.30142060     0.14500
C789        C  0.33151024  0.28544529  0.26829317     0.36100
C790        C  0.34258098  0.32884606  0.38738895     0.36000
N791        N  0.32985573  0.27734691  0.24382886    -0.44200
N792        N  0.34462460  0.33837714  0.41110429    -0.44200
C793        C  0.49084888  0.29329987  0.31793114    -0.00600
C794        C  0.49690797  0.30332840  0.34778439    -0.12500
C795        C  0.48333864  0.31468664  0.36159625     0.01600
C796        C  0.46315945  0.31588706  0.34552982    -0.00700
C797        C  0.45665687  0.30544268  0.31604960    -0.12500
C798        C  0.47020136  0.29412201  0.30214045     0.01500
H799        H  0.51262084  0.30272484  0.36022215     0.14500
H800        H  0.44158222  0.30707242  0.30343529     0.14500
C801        C  0.95853575  0.28241980  0.27036647     0.36100
C802        C  0.49170019  0.32651136  0.39135707     0.36000
N803        N  0.95197757  0.27476367  0.24579721    -0.44200
N804        N  0.49875628  0.33601024  0.41513931    -0.44200
C805        C  0.39647798  0.38585169  0.46055319    -0.00600
C806        C  0.39864492  0.41098846  0.45922736    -0.12500
C807        C  0.38956383  0.42044354  0.48265189     0.01600
C808        C  0.37682138  0.40425775  0.50818529    -0.00700
C809        C  0.37175366  0.37795816  0.50805958    -0.12500
C810        C  0.38163023  0.36869160  0.48461345     0.01500
H811        H  0.40921548  0.42437562  0.44066950     0.14500
H812        H  0.36180974  0.36526277  0.52735253     0.14500
C813        C  0.37730966  0.34210414  0.48672149     0.36100
C814        C  0.39578145  0.44777239  0.48064226     0.36000
N815        N  0.37373533  0.32072637  0.48840756    -0.44200
N816        N  0.40144792  0.46983147  0.47906405    -0.44200
C817        C  0.17955293  0.14250161  0.34819606    -0.00600
C818        C  0.19724210  0.16460702  0.36555778    -0.12500
C819        C  0.21168527  0.18983242  0.35234808     0.01600
C820        C  0.20931533  0.19307186  0.32085012    -0.00700
C821        C  0.19152655  0.17097975  0.30360501    -0.12500
C822        C  0.17648292  0.14602750  0.31690901     0.01500
H823        H  0.19963285  0.16220991  0.38959631     0.14500
H824        H  0.18894792  0.17328864  0.27957475     0.14500
C825        C  0.15857950  0.12438338  0.29750746     0.36100
C826        C  0.22897413  0.21188689  0.37157167     0.36000
N827        N  0.14414832  0.10714973  0.28192006    -0.44200
N828        N  0.24269686  0.22964417  0.38697146    -0.44200
C829        C  0.21774576  0.02541883  0.31024620    -0.00600
C830        C  0.20531028  0.03633872  0.29306976    -0.12500
C831        C  0.19280321  0.04875232  0.30714019     0.01600
C832        C  0.19271410  0.05067486  0.33932910    -0.00700
C833        C  0.20662844  0.04120372  0.35634325    -0.12500
C834        C  0.21899605  0.02866555  0.34225044     0.01500
H835        H  0.20552978  0.53551066  0.26879575     0.14500
H836        H  0.20711975  0.04271321  0.38095897     0.14500
C837        C  0.23278406  0.01938059  0.36137822     0.36100
C838        C  0.17989729  0.05878954  0.28769564     0.36000
N839        N  0.24379368  0.01193752  0.37674707    -0.44200
N840        N  0.17092262  0.56805361  0.27278997    -0.44200
C841        C  0.07352331  0.48003027  0.35087734    -0.00600
C842        C  0.07041517  0.45727301  0.36549388    -0.12500
C843        C  0.04624422  0.43353160  0.36421260     0.01600
C844        C  0.02457004  0.43289247  0.34934946    -0.00700
C845        C  0.02888977  0.45431704  0.33092893    -0.12500
C846        C  0.05334755  0.47786572  0.33142654     0.01500
H847        H  0.08605828  0.45864924  0.37997380     0.14500
H848        H  0.01242861  0.45380970  0.31896298     0.14500
C849        C  0.05605992  0.50057831  0.31511281     0.36100
C850        C  0.04358107  0.41040061  0.37948744     0.36000
N851        N  0.05674406  0.01939046  0.30134597    -0.44200
N852        N  0.04145150  0.39166622  0.39122893    -0.44200
C853        C  0.04054252  0.35745853  0.64155733    -0.00600
C854        C  0.05497073  0.34463227  0.64758701    -0.12500
C855        C  0.04311036  0.32000147  0.66209815     0.01600
C856        C  0.01620502  0.30764018  0.67029441    -0.00700
C857        C  0.00151917  0.31998083  0.66321046    -0.12500
C858        C  0.01346129  0.34481117  0.64922132     0.01500
H859        H  0.07575842  0.35420322  0.64170287     0.14500
H860        H  0.48166651  0.30940654  0.66855615     0.14500
C861        C  0.99739828  0.35666327  0.64263627     0.36100
C862        C  0.05878444  0.30758267  0.66771173     0.36000
N863        N  0.48344783  0.36187621  0.63063628    -0.44200
N864        N  0.07126328  0.29755117  0.67225113    -0.44200
C865        C  0.14662354  0.45260015  0.65116222    -0.00600
C866        C  0.16923793  0.45860601  0.63393395    -0.12500
C867        C  0.19444153  0.47139167  0.64693460     0.01600
C868        C  0.19757717  0.47842078  0.67805266    -0.00700
C869        C  0.17495663  0.47135205  0.69569697    -0.12500
C870        C  0.14970201  0.45868630  0.68270748     0.01500
H871        H  0.16742120  0.45388923  0.60986002     0.14500
H872        H  0.17712812  0.97697184  0.71972262     0.14500
C873        C  0.12767309  0.45291353  0.70244484     0.36100
C874        C  0.21662667  0.47686419  0.62766703     0.36000
N875        N  0.11013453  0.44839804  0.71838085    -0.44200
N876        N  0.23440003  0.48127997  0.61220388    -0.44200
C877        C  0.49417503  0.42912738  0.60967301    -0.00600
C878        C  0.48006627  0.42531957  0.58255588    -0.12500
C879        C  0.45671944  0.42619618  0.58202683     0.01600
C880        C  0.44685316  0.43111520  0.60920206    -0.00700
C881        C  0.45912257  0.43166276  0.63687656    -0.12500
C882        C  0.48246158  0.43036868  0.63739155     0.01500
H883        H  0.48787226  0.42278200  0.56118079     0.14500
H884        H  0.45115865  0.43426657  0.65808020     0.14500
C885        C  0.49377557  0.43055233  0.66659296     0.36100
C886        C  0.44398724  0.42260077  0.55287671     0.36000
N887        N  0.50234169  0.43016794  0.69017813    -0.44200
N888        N  0.43434041  0.41978360  0.52918830    -0.44200
C889        C  0.13583890  0.48469744  0.52238350    -0.00600
C890        C  0.13344293  0.47317547  0.49364125    -0.12500
C891        C  0.14054244  0.48888980  0.46739999     0.01600
C892        C  0.14971966  0.01570510  0.46854748    -0.00700
C893        C  0.15825282  0.02791160  0.49712514    -0.12500
C894        C  0.15121856  0.01256039  0.52364200     0.01500
H895        H  0.12287035  0.45176053  0.49130965     0.14500
H896        H  0.16754389  0.04929796  0.49911899     0.14500
C897        C  0.15842464  0.02573562  0.55283231     0.36100
C898        C  0.13492968  0.47611784  0.43797681     0.36000
N899        N  0.16447899  0.03630127  0.57621010    -0.44200
N900        N  0.13039601  0.46593296  0.41436769    -0.44200
C901        C  0.49290626  0.37584832  0.46405285    -0.00600
C902        C  0.01869970  0.39769732  0.45934517    -0.12500
C903        C  0.03849208  0.40826559  0.48126285     0.01600
C904        C  0.03465133  0.39568909  0.50977716    -0.00700
C905        C  0.51063959  0.37108776  0.51249650    -0.12500
C906        C  0.49001866  0.36116371  0.49069266     0.01500
H907        H  0.02147364  0.40870412  0.43850662     0.14500
H908        H  0.50759948  0.36083208  0.53396342     0.14500
C909        C  0.46545579  0.33737114  0.49725421     0.36100
C910        C  0.06112890  0.43380194  0.47471530     0.36000
N911        N  0.44572844  0.31825682  0.50245457    -0.44200
N912        N  0.07840997  0.45466879  0.46896770    -0.44200
C913        C  0.19548527  0.20567641  0.67708853    -0.00600
C914        C  0.18093193  0.17818980  0.68061872    -0.12500
C915        C  0.15561450  0.16344799  0.66869818     0.01600
C916        C  0.14430435  0.17635323  0.65247591    -0.00700
C917        C  0.15886048  0.20414132  0.64940298    -0.12500
C918        C  0.18432107  0.21890156  0.66180217     0.01500
H919        H  0.18974426  0.16807267  0.69228481     0.14500
H920        H  0.15034698  0.21434186  0.63741513     0.14500
C921        C  0.19894087  0.24726517  0.65765873     0.36100
C922        C  0.14239214  0.13505139  0.67286822     0.36000
N923        N  0.21066574  0.27001844  0.65439720    -0.44200
N924        N  0.13203603  0.11237639  0.67659066    -0.44200
C925        C  0.04670156  0.18254164  0.65346005    -0.00600
C926        C  0.04354674  0.20072793  0.63545383    -0.12500
C927        C  0.03166980  0.21467287  0.64727032     0.01600
C928        C  0.02309824  0.21083770  0.67783752    -0.00700
C929        C  0.02708111  0.19352482  0.69606007    -0.12500
C930        C  0.03815764  0.17903341  0.68424716     0.01500
H931        H  0.05003034  0.20384504  0.61194061     0.14500
H932        H  0.02035287  0.19036875  0.71947518     0.14500
C933        C  0.03885984  0.15971423  0.70420504     0.36100
C934        C  0.52282837  0.22871475  0.62971911     0.36000
N935        N  0.03908614  0.14412257  0.72028076    -0.44200
N936        N  0.51750707  0.24107556  0.61367525    -0.44200
C937        C  0.48433798  0.06295606  0.65064922    -0.00600
C938        C  0.46372051  0.06396069  0.63582152    -0.12500
C939        C  0.43879818  0.04128654  0.63348393     0.01600
C940        C  0.43458006  0.01724859  0.64596911    -0.00700
C941        C  0.45386711  0.01742971  0.66509111    -0.12500
C942        C  0.47876686  0.04026743  0.66759041     0.01500
H943        H  0.46784088  0.08163495  0.62359739     0.14500
H944        H  0.45058325  0.99906863  0.67524085     0.14500
C945        C  0.00016561  0.03830608  0.68595484     0.36100
C946        C  0.41843175  0.04262734  0.61643827     0.36000
N947        N  0.01613563  0.03695536  0.70007523    -0.44200
N948        N  0.40206142  0.04399050  0.60320102    -0.44200
C949        C  0.08488708  0.06185574  0.63839917    -0.00600
C950        C  0.07385360  0.04249017  0.66112883    -0.12500
C951        C  0.07894664  0.02136879  0.66141532     0.01600
C952        C  0.09389112  0.01900128  0.63770115    -0.00700
C953        C  0.10844555  0.04069978  0.61850008    -0.12500
C954        C  0.10481678  0.06262065  0.61967303     0.01500
H955        H  0.05999936  0.04282594  0.67718213     0.14500
H956        H  0.12112770  0.03967916  0.60116796     0.14500
C957        C  0.12201585  0.08591061  0.60222260     0.36100
C958        C  0.06285967  0.49909509  0.68242349     0.36000
N959        N  0.13643179  0.10499980  0.58922665    -0.44200
N960        N  0.05224703  0.48258791  0.70035429    -0.44200
C961        C  0.10829833  0.11618760  0.52911725    -0.00600
C962        C  0.10474165  0.09060094  0.53059546    -0.12500
C963        C  0.11581741  0.08140996  0.50915916     0.01600
C964        C  0.12969060  0.09738081  0.48384468    -0.00700
C965        C  0.13457720  0.12368109  0.48301432    -0.12500
C966        C  0.12411401  0.13322292  0.50562168     0.01500
H967        H  0.09259016  0.07728993  0.54852258     0.14500
H968        H  0.14501340  0.13616199  0.46377772     0.14500
C969        C  0.12781250  0.15952473  0.50278081     0.36100
C970        C  0.11146064  0.05488718  0.51341727     0.36000
N971        N  0.13068377  0.18060325  0.50054268    -0.44200
N972        N  0.10758644  0.03355940  0.51706080    -0.44200
C973        C  0.46308421  0.14107212  0.34634654    -0.00600
C974        C  0.46323877  0.16258787  0.36120898    -0.12500
C975        C  0.47504242  0.18776167  0.34777082     0.01600
C976        C  0.48702704  0.19177989  0.31890936    -0.00700
C977        C  0.48654842  0.17036795  0.30380102    -0.12500
C978        C  0.47498492  0.14528979  0.31712426     0.01500
H979        H  0.45390865  0.15973985  0.38329567     0.14500
H980        H  0.49600716  0.17344382  0.28172965     0.14500
C981        C  0.47650185  0.12472117  0.30028706     0.36100
C982        C  0.98640957  0.21103341  0.36863282     0.36000
N983        N  0.47779889  0.10836611  0.28665434    -0.44200
N984        N  0.99123435  0.22920343  0.38377039    -0.44200
C985        C  0.36115611  0.04278103  0.34069450    -0.00600
C986        C  0.36031872  0.04377317  0.30883552    -0.12500
C987        C  0.33615707  0.03169644  0.29334043     0.01600
C988        C  0.31238563  0.01776671  0.30991202    -0.00700
C989        C  0.31326073  0.01699392  0.34172083    -0.12500
C990        C  0.33734283  0.02954979  0.35721670     0.01500
H991        H  0.37862665  0.05376051  0.29603820     0.14500
H992        H  0.29500809  0.00644684  0.35451882     0.14500
C993        C  0.33694448  0.02719940  0.38989506     0.36100
C994        C  0.33640382  0.03279497  0.26049957     0.36000
N995        N  0.33604777  0.02497598  0.41607772    -0.44200
N996        N  0.33487425  0.51150362  0.23740082    -0.44200
C997        C  0.41946176  0.47950424  0.36253330    -0.00600
C998        C  0.43593028  0.47993674  0.33881719    -0.12500
C999        C  0.43911431  0.45809449  0.33319920     0.01600
C1000       C  0.42531824  0.43524985  0.35102477    -0.00700
C1001       C  0.40631285  0.43345777  0.37187040    -0.12500
C1002       C  0.40322059  0.45540154  0.37774058     0.01500
H1003       H  0.44849192  0.99821812  0.32598065     0.14500
H1004       H  0.39548956  0.41564405  0.38540886     0.14500
C1005       C  0.38385360  0.45283007  0.39989677     0.36100
C1006       C  0.45823857  0.46030708  0.31083953     0.36000
N1007       N  0.36804070  0.45053530  0.41738884    -0.44200
N1008       N  0.47346090  0.46210008  0.29276804    -0.44200
C1009       C  0.47935721  0.10745341  0.47793085    -0.00600
C1010       C  0.46947723  0.10539867  0.50743464    -0.12500
C1011       C  0.98740602  0.11390262  0.53396423     0.01600
C1012       C  0.01465202  0.12373330  0.52987615    -0.00700
C1013       C  0.02500754  0.12880327  0.50021955    -0.12500
C1014       C  0.50692099  0.12109498  0.47343602     0.01500
H1015       H  0.44849252  0.09548389  0.51105862     0.14500
H1016       H  0.04605218  0.13708613  0.49675432     0.14500
C1017       C  0.51788854  0.12652955  0.44312387     0.36100
C1018       C  0.97633475  0.11242488  0.56369441     0.36000
N1019       N  0.52646255  0.13122245  0.41872613    -0.44200
N1020       N  0.96723298  0.11197119  0.58721099    -0.44200
C1021       C  0.35912884  0.48585683  0.52568365    -0.00600
C1022       C  0.37081615  0.51343729  0.52953816    -0.12500
C1023       C  0.37819864  0.03150891  0.50350719     0.01600
C1024       C  0.37411602  0.02092352  0.47392287    -0.00700
C1025       C  0.35814947  0.49202212  0.47102496    -0.12500
C1026       C  0.35030880  0.47508360  0.49626915     0.01500
H1027       H  0.37645791  0.52196652  0.55207247     0.14500
H1028       H  0.35460225  0.48369536  0.44827420     0.14500
C1029       C  0.33625832  0.44685321  0.49080705     0.36100
C1030       C  0.39070093  0.05976169  0.50829197     0.36000
N1031       N  0.32497103  0.42421318  0.48648569    -0.44200
N1032       N  0.39992429  0.08237088  0.51191251    -0.44200
C1033       C  0.01395236  0.07091074  0.37738610    -0.00600
C1034       C  0.02772623  0.07579054  0.40485209    -0.12500
C1035       C  0.05080866  0.07449924  0.40683071     0.01600
C1036       C  0.06055401  0.06784424  0.38076248    -0.00700
C1037       C  0.04805444  0.06538464  0.35256178    -0.12500
C1038       C  0.02472853  0.06668312  0.35073811     0.01500
H1039       H  0.01938866  0.07892383  0.42546577     0.14500
H1040       H  0.05548496  0.06074142  0.33224096     0.14500
C1041       C  0.51095165  0.06221322  0.32110787     0.36100
C1042       C  0.06312167  0.07906374  0.43637685     0.36000
N1043       N  0.50013721  0.05773918  0.29795124    -0.44200
N1044       N  0.07243655  0.08262305  0.46035123    -0.44200
O1045       O  0.39125025  0.55129640  0.43461167    -0.82300
C1046       C  0.48538984  0.56415536  0.38011980     0.97100
O1047       O  0.47147823  0.54775071  0.40031367    -0.71400
O1048       O  0.46323519  0.57136183  0.44502269    -0.75000
Al1049     Al  0.44071785  0.54138537  0.42156645     1.49000
C1050       C  0.46031793  0.59004985  0.45491555     0.92300
O1051       O  0.44257116  0.61078663  0.39008766    -0.81200
O1052       O  0.40243552  0.54461327  0.34749649    -0.74800
Al1053     Al  0.41823745  0.57919972  0.41090589     1.90100
O1054       O  0.44495691  0.59354221  0.34723143    -0.73800
O1055       O  0.43331439  0.52461061  0.35527760    -0.73700
O1056       O  0.47568216  0.57420325  0.36248785    -0.79300
O1057       O  0.41916503  0.50875407  0.40061725    -0.77600
O1058       O  0.43236226  0.56006772  0.39658778    -1.13700
O1059       O  0.41244323  0.53112041  0.44873688    -0.72900
C1060       C  0.39304555  0.53465157  0.45102855     0.97800
C1061       C  0.44880298  0.61337110  0.36238989     0.94200
Al1062     Al  0.43844281  0.55937185  0.35667991     1.55600
O1063       O  0.44175270  0.59345914  0.44550178    -0.77500
C1064       C  0.42312514  0.50525953  0.37321586     0.98400
C1065       C  0.38649557  0.55176675  0.35685477     0.93300
O1066       O  0.39230088  0.56788222  0.37890433    -0.82800
O1067       O  0.10179351  0.64321181  0.56689255    -0.82300
C1068       C  0.01240221  0.58079205  0.64236684     0.97100
O1069       O  0.01979531  0.57378599  0.61893279    -0.71400
O1070       O  0.02318120  0.60364409  0.57216696    -0.75000
Al1071     Al  0.04632080  0.59302200  0.58911242     1.49000
C1072       C  0.03118916  0.62375135  0.55528669     0.92300
O1073       O  0.06082870  0.66692187  0.61142315    -0.81200
O1074       O  0.10149347  0.63965333  0.65132835    -0.74800
Al1075     Al  0.08039348  0.65365302  0.59025641     1.90100
O1076       O  0.06309134  0.65272351  0.65686025    -0.73800
O1077       O  0.06723412  0.58960078  0.65229568    -0.73700
O1078       O  0.02740434  0.60255178  0.65515975    -0.79300
O1079       O  0.06831249  0.58050224  0.60394354    -0.77600
O1080       O  0.06378537  0.62277992  0.61004376    -1.13700
O1081       O  0.06853608  0.60448473  0.55414115    -0.72900
C1082       C  0.09235224  0.62229570  0.55097171     0.97800
C1083       C  0.05744815  0.66662472  0.63990324     0.94200
Al1084     Al  0.06478401  0.62139410  0.65050227     1.55600
O1085       O  0.05452681  0.64314690  0.55783086    -0.77500
C1086       C  0.07309825  0.57843039  0.63144844     0.98400
C1087       C  0.11721546  0.66164061  0.63970747     0.93300
O1088       O  0.10975643  0.67081067  0.61824998    -0.82800
O1089       O  0.05968235  0.90033058  0.55502438    -0.82300
C1090       C  0.08715736  0.99268913  0.62614679     0.97100
O1091       O  0.07717307  0.98661959  0.60004162    -0.71400
O1092       O  0.10522759  0.97894358  0.55986373    -0.75000
Al1093     Al  0.06953511  0.95901374  0.57233494     1.49000
C1094       C  0.11695377  0.96894642  0.54578449     0.92300
O1095       O  0.12025242  0.93809523  0.60638939    -0.81200
O1096       O  0.04852868  0.90149849  0.63764368    -0.74800
Al1097     Al  0.08971329  0.92015797  0.58164530     1.90100
O1098       O  0.10082766  0.93835056  0.64912981    -0.73800
O1099       O  0.03693968  0.93892127  0.63204525    -0.73700
O1100       O  0.08939497  0.97610707  0.64222233    -0.79300
O1101       O  0.03348776  0.94118760  0.58260817    -0.77600
O1102       O  0.07622955  0.93928520  0.59714272    -1.13700
O1103       O  0.05978581  0.93576827  0.53824924    -0.72900
C1104       C  0.05241008  0.91145832  0.53563678     0.97800
C1105       C  0.12127830  0.94234551  0.63475110     0.94200
Al1106     Al  0.06951591  0.93862725  0.63688552     1.55600
O1107       O  0.10996497  0.94476313  0.54949180    -0.77500
C1108       C  0.02337991  0.93712324  0.60882287     0.98400
C1109       C  0.05473783  0.88485236  0.62868461     0.93300
O1110       O  0.07326288  0.89135821  0.60987330    -0.82800
O1111       O  0.15337005  0.59820369  0.43807120    -0.82300
C1112       C  0.09257925  0.50604098  0.36368637     0.97100
O1113       O  0.08909108  0.51060258  0.39063676    -0.71400
O1114       O  0.12539016  0.52044255  0.43087101    -0.75000
Al1115     Al  0.10737512  0.53832846  0.41861196     1.49000
C1116       C  0.14671448  0.53154805  0.44562463     0.92300
O1117       O  0.18042418  0.56463952  0.38503561    -0.81200
O1118       O  0.14327179  0.59831449  0.35350065    -0.74800
Al1119     Al  0.16566689  0.58045686  0.41054615     1.90100
O1120       O  0.15922280  0.56183990  0.34252000    -0.73800
O1121       O  0.09473694  0.56079842  0.35987359    -0.73700
O1122       O  0.11029617  0.52388779  0.34769892    -0.79300
O1123       O  0.08681122  0.55379509  0.40879301    -0.77600
O1124       O  0.13345418  0.56001659  0.39431039    -1.13700
O1125       O  0.11901985  0.56110911  0.45287779    -0.72900
C1126       C  0.13490071  0.58546263  0.45702100     0.97800
C1127       C  0.17702432  0.55992314  0.35670431     0.94200
Al1128     Al  0.12753918  0.56119850  0.35450335     1.55600
O1129       O  0.16270427  0.55602103  0.44218253    -0.77500
C1130       C  0.08193132  0.56030915  0.38333120     0.98400
C1131       C  0.16574539  0.61533359  0.36269772     0.93300
O1132       O  0.17699186  0.60968621  0.38333518    -0.82800
O1133       O  0.45557835  0.85000283  0.42916086    -0.82300
C1134       C  0.43469382  0.91736944  0.35653590     0.97100
O1135       O  0.45328966  0.92473812  0.37539363    -0.71400
O1136       O  0.42847963  0.89877749  0.42346688    -0.75000
Al1137     Al  0.45914134  0.90401310  0.40448145     1.49000
C1138       C  0.41212131  0.87924380  0.43894709     0.92300
O1139       O  0.39251099  0.83198136  0.38404759    -0.81200
O1140       O  0.45825849  0.85374873  0.34134683    -0.74800
Al1141     Al  0.42513712  0.84318748  0.40514008     1.90100
O1142       O  0.40789947  0.84418286  0.33802833    -0.73800
O1143       O  0.47741106  0.90529731  0.33982975    -0.73700
O1144       O  0.42517067  0.89519115  0.34344813    -0.79300
O1145       O  0.49168648  0.91165230  0.38689398    -0.77600
O1146       O  0.44202327  0.87356880  0.38465873    -1.13700
O1147       O  0.46898762  0.89155113  0.43870570    -0.72900
C1148       C  0.47063599  0.87116996  0.44319655     0.97800
C1149       C  0.38866535  0.83163191  0.35574821     0.94200
Al1150     Al  0.44214267  0.87441849  0.34401219     1.55600
O1151       O  0.41118799  0.85698315  0.43655378    -0.77500
C1152       C  0.49627789  0.91542502  0.35879958     0.98400
C1153       C  0.45203146  0.83239144  0.35495890     0.93300
O1154       O  0.43638372  0.82463905  0.37759334    -0.82800
O1155       O  0.34568403  0.94600106  0.55138146    -0.82300
C1156       C  0.42460818  0.93739603  0.60684567     0.97100
O1157       O  0.42025992  0.94610878  0.58268153    -0.71400
O1158       O  0.38792007  0.94026098  0.53958155    -0.75000
Al1159     Al  0.40009809  0.96213350  0.57499135     1.49000
C1160       C  0.37192239  0.91585281  0.53536254     0.92300
O1161       O  0.32908426  0.88998350  0.60882296    -0.81200
O1162       O  0.34860932  0.93692790  0.65114403    -0.74800
Al1163     Al  0.34188263  0.92031674  0.58232550     1.90100
O1164       O  0.36280078  0.89921267  0.63758866    -0.73800
O1165       O  0.39831836  0.97324191  0.64729203    -0.73700
O1166       O  0.41182014  0.93546270  0.63095201    -0.79300
O1167       O  0.41862815  0.98869920  0.60423533    -0.77600
O1168       O  0.37405530  0.93958570  0.59881280    -1.13700
O1169       O  0.38249408  0.98099767  0.56483302    -0.72900
C1170       C  0.36182105  0.97061577  0.54895889     0.97800
C1171       C  0.33994294  0.88305445  0.62869161     0.94200
Al1172     Al  0.37977409  0.93640011  0.63821117     1.55600
O1173       O  0.35367969  0.90285290  0.55443448    -0.77500
C1174       C  0.41559525  0.99188841  0.63183141     0.98400
C1175       C  0.33218495  0.94082629  0.63642274     0.93300
O1176       O  0.32856654  0.93640756  0.60816365    -0.82800
O1177       O  0.27846248  0.49555904  0.21993436    -0.82300
C1178       C  0.18226788  0.92121522  0.28096305     0.97100
O1179       O  0.19150757  0.92006645  0.25562293    -0.71400
O1180       O  0.19882321  0.95687631  0.21683568    -0.75000
Al1181     Al  0.21994523  0.94318701  0.23099270     1.49000
C1182       C  0.20791535  0.97931655  0.20461753     0.92300
O1183       O  0.23514338  0.51471938  0.26669857    -0.81200
O1184       O  0.26975867  0.98076721  0.30366495    -0.74800
Al1185     Al  0.25528943  0.50327694  0.24368599     1.90100
O1186       O  0.22945435  0.99178940  0.30883223    -0.73800
O1187       O  0.23582052  0.93050520  0.29304501    -0.73700
O1188       O  0.19478528  0.94124092  0.29782121    -0.79300
O1189       O  0.23946715  0.92724982  0.24367559    -0.77600
O1190       O  0.23569702  0.96926780  0.25775030    -1.13700
O1191       O  0.24504399  0.95923145  0.19882930    -0.72900
C1192       C  0.26930392  0.97584459  0.20098700     0.97800
C1193       C  0.22783034  0.50966448  0.29416883     0.94200
Al1194     Al  0.23286945  0.96196014  0.29748578     1.55600
O1195       O  0.23142606  0.99750925  0.20960431    -0.77500
C1196       C  0.24023174  0.91971185  0.27041808     0.98400
C1197       C  0.28606458  0.50312368  0.29558270     0.93300
O1198       O  0.28161196  0.51476479  0.27431234    -0.82800
O1199       O  0.06799788  0.88610577  0.10590422    -0.82300
C1200       C  0.15922434  0.90881925  0.03527894     0.97100
O1201       O  0.15203972  0.89859538  0.06100253    -0.71400
O1202       O  0.14653260  0.92958202  0.09918001    -0.75000
Al1203     Al  0.12505445  0.89378253  0.08793135     1.49000
C1204       C  0.13788030  0.94301999  0.11225534     0.92300
O1205       O  0.10591665  0.94676285  0.05356093    -0.81200
O1206       O  0.06949863  0.87819633  0.01909371    -0.74800
Al1207     Al  0.08817641  0.91616148  0.07872919     1.90100
O1208       O  0.11041570  0.92905787  0.01128850    -0.73800
O1209       O  0.10232099  0.86069531  0.02848376    -0.73700
O1210       O  0.14378120  0.91226637  0.01870945    -0.79300
O1211       O  0.10518492  0.85776652  0.07813518    -0.77600
O1212       O  0.10641405  0.90180436  0.06281958    -1.13700
O1213       O  0.10311960  0.88625165  0.12272064    -0.72900
C1214       C  0.07894909  0.87872047  0.12539176     0.97800
C1215       C  0.11251434  0.94887049  0.02580378     0.94200
Al1216     Al  0.10637004  0.89556096  0.02289060     1.55600
O1217       O  0.11380545  0.93659259  0.10990471    -0.77500
C1218       C  0.09984584  0.84709084  0.05208886     0.98400
C1219       C  0.05320207  0.88421521  0.02956900     0.93300
O1220       O  0.05925390  0.90015328  0.05142896    -0.82800
O1221       O  0.01885480  0.78252334  0.22904108    -0.82300
C1222       C  0.08412890  0.75529030  0.29864773     0.97100
O1223       O  0.08879644  0.76633313  0.27304717    -0.71400
O1224       O  0.05624403  0.74133299  0.22942136    -0.75000
Al1225     Al  0.06971496  0.77562525  0.24567567     1.49000
C1226       C  0.03518272  0.72884289  0.21456778     0.92300
O1227       O  0.49904328  0.71913125  0.27708855    -0.81200
O1228       O  0.02719452  0.78895149  0.31127828    -0.74800
Al1229     Al  0.51065314  0.75069914  0.25435129     1.90100
O1230       O  0.01462366  0.73698924  0.31867274    -0.73800
O1231       O  0.07760822  0.80417197  0.30832798    -0.73700
O1232       O  0.06468358  0.75192959  0.31423672    -0.79300
O1233       O  0.08685617  0.81088529  0.25958929    -0.77600
O1234       O  0.04178602  0.76568307  0.26931687    -1.13700
O1235       O  0.05679491  0.78777781  0.21288024    -0.72900
C1236       C  0.03917743  0.79438944  0.21236105     0.97800
C1237       C  0.50142131  0.71721756  0.30546150     0.94200
Al1238     Al  0.04556645  0.77016248  0.30962051     1.55600
O1239       O  0.01695669  0.73432525  0.21783668    -0.77500
C1240       C  0.09114928  0.81898379  0.28666388     0.98400
C1241       C  0.50602285  0.78153572  0.30388731     0.93300
O1242       O  0.49602693  0.76418807  0.28333594    -0.82800
O1243       O  0.11729310  0.66789215  0.09942125    -0.82300
C1244       C  0.09741960  0.74802822  0.05346258     0.97100
O1245       O  0.11400672  0.75032526  0.07325596    -0.71400
O1246       O  0.09047421  0.71495005  0.11463813    -0.75000
Al1247     Al  0.12149897  0.72567032  0.09232848     1.49000
C1248       C  0.07287830  0.69225756  0.12304518     0.92300
O1249       O  0.05560546  0.65735087  0.05761156    -0.81200
O1250       O  0.12161730  0.68942732  0.01426999    -0.74800
Al1251     Al  0.08787449  0.66567122  0.07725549     1.90100
O1252       O  0.07121337  0.67971521  0.01569877    -0.73800
O1253       O  0.13901357  0.73931747  0.02676408    -0.73700
O1254       O  0.08816124  0.72889779  0.03479010    -0.79300
O1255       O  0.15465789  0.73944407  0.07198807    -0.77600
O1256       O  0.10470845  0.69971843  0.06537809    -1.13700
O1257       O  0.13270851  0.70758995  0.11832790    -0.72900
C1258       C  0.13198441  0.68571670  0.11792617     0.97800
C1259       C  0.05226775  0.66209167  0.03061080     0.94200
Al1260     Al  0.10490091  0.70840243  0.02628085     1.55600
O1261       O  0.07235538  0.67150951  0.11331719    -0.77500
C1262       C  0.15816785  0.74804048  0.04505452     0.98400
C1263       C  0.11616131  0.66632543  0.02167442     0.93300
O1264       O  0.10027256  0.65404516  0.04322724    -0.82800
O1265       O  0.32453832  0.93547837  0.09787716    -0.82300
C1266       C  0.24940477  0.84732070  0.02944677     0.97100
O1267       O  0.24453468  0.85972908  0.04955348    -0.71400
O1268       O  0.27250349  0.85981040  0.09524595    -0.75000
Al1269     Al  0.26808249  0.88625228  0.07732587     1.49000
C1270       C  0.29230390  0.86216272  0.10941690     0.92300
O1271       O  0.33630015  0.88650486  0.05205743    -0.81200
O1272       O  0.31683682  0.93216101  0.01014834    -0.74800
Al1273     Al  0.32814433  0.90979796  0.07359174     1.90100
O1274       O  0.32174412  0.88849210  0.00698165    -0.73800
O1275       O  0.26483567  0.90305078  0.01312175    -0.73700
O1276       O  0.27091613  0.85833362  0.01513772    -0.79300
O1277       O  0.26144935  0.91210560  0.06083838    -0.77600
O1278       O  0.29702313  0.89747241  0.05520547    -1.13700
O1279       O  0.28360402  0.90913713  0.11109821    -0.72900
C1280       C  0.30516991  0.93018233  0.11489714     0.97800
C1281       C  0.33502239  0.88207364  0.02385916     0.94200
Al1282     Al  0.29393451  0.89575338  0.01467396     1.55600
O1283       O  0.31478962  0.88291612  0.10604337    -0.77500
C1284       C  0.25594963  0.91231833  0.03316039     0.98400
C1285       C  0.33935930  0.94605758  0.02186267     0.93300
O1286       O  0.34676481  0.93815052  0.04471354    -0.82800
O1287       O  0.22294458  0.72845597  0.21910047    -0.82300
C1288       C  0.23238160  0.81724194  0.27597326     0.97100
O1289       O  0.22260126  0.80381644  0.25217755    -0.71400
O1290       O  0.23091535  0.77867828  0.20924144    -0.75000
Al1291     Al  0.20735448  0.76783769  0.24283489     1.49000
C1292       C  0.25488765  0.78531040  0.20529553     0.92300
O1293       O  0.27662558  0.76439700  0.27936610    -0.81200
O1294       O  0.22791682  0.73914305  0.31973782    -0.74800
Al1295     Al  0.24718885  0.74887796  0.25170138     1.90100
O1296       O  0.26901036  0.79024667  0.30788027    -0.73800
O1297       O  0.19492459  0.75677272  0.31509165    -0.73700
O1298       O  0.23543086  0.80670885  0.29964632    -0.79300
O1299       O  0.17981393  0.75859225  0.27049757    -0.77600
O1300       O  0.22882127  0.76334612  0.26741815    -1.13700
O1301       O  0.18859045  0.73179366  0.23058946    -0.72900
C1302       C  0.19880748  0.72093184  0.21540488     0.97800
C1303       C  0.28433840  0.78232776  0.29923878     0.94200
Al1304     Al  0.23169938  0.77238745  0.30695762     1.55600
O1305       O  0.26668822  0.77839279  0.22430933    -0.77500
C1306       C  0.17630359  0.75376355  0.29834456     0.98400
C1307       C  0.22305490  0.71828122  0.30518975     0.93300
O1308       O  0.22859895  0.71898628  0.27715589    -0.82800
O1309       O  0.38965858  0.56517854  0.89281896    -0.82300
C1310       C  0.40405065  0.65009031  0.96884364     0.97100
O1311       O  0.39216368  0.64360009  0.94360306    -0.71400
O1312       O  0.42280897  0.64322481  0.90166452    -0.75000
Al1313     Al  0.38879540  0.61832057  0.91324938     1.49000
C1314       C  0.43751987  0.63841978  0.88539613     0.92300
O1315       O  0.44844116  0.60920675  0.94368653    -0.81200
O1316       O  0.37666114  0.56106103  0.97383023    -0.74800
Al1317     Al  0.41861409  0.58798692  0.91880447     1.90100
O1318       O  0.42698644  0.60176047  0.98702399    -0.73800
O1319       O  0.35790346  0.59388225  0.97222644    -0.73700
O1320       O  0.40943452  0.63468021  0.98281322    -0.79300
O1321       O  0.35395812  0.59511588  0.92296548    -0.77600
O1322       O  0.40022592  0.60139852  0.93607841    -1.13700
O1323       O  0.38234572  0.59671744  0.87727389    -0.72900
C1324       C  0.37831237  0.57330679  0.87497338     0.97800
C1325       C  0.44852956  0.61044323  0.97247778     0.94200
Al1326     Al  0.39326305  0.59796079  0.97574351     1.55600
O1327       O  0.43548333  0.61560994  0.88688904    -0.77500
C1328       C  0.34372868  0.59054346  0.94888578     0.98400
C1329       C  0.38787429  0.54840822  0.96580461     0.93300
O1330       O  0.40643128  0.55801466  0.94642598    -0.82800
O1331       O  0.99765770  0.77753851  0.76402327    -0.82300
C1332       C  0.42483807  0.67867514  0.71157440     0.97100
O1333       O  0.42134670  0.69066674  0.73332803    -0.71400
O1334       O  0.45735279  0.69997339  0.77314302    -0.75000
Al1335     Al  0.44479942  0.72102463  0.75609450     1.49000
C1336       C  0.47931843  0.70894454  0.78612514     0.92300
O1337       O  0.01290590  0.73022031  0.72019053    -0.81200
O1338       O  0.48062915  0.76548248  0.68140319    -0.74800
Al1339     Al  0.00319307  0.75253902  0.74085635     1.90100
O1340       O  0.49310260  0.72608778  0.67896693    -0.73800
O1341       O  0.43114909  0.73111365  0.69255709    -0.73700
O1342       O  0.44393924  0.69101287  0.69352822    -0.79300
O1343       O  0.42999000  0.74078310  0.74055381    -0.77600
O1344       O  0.47077076  0.73451295  0.72938070    -1.13700
O1345       O  0.46148796  0.74786901  0.78636753    -0.72900
C1346       C  0.48089997  0.77109190  0.78579242     0.97800
C1347       C  0.00950680  0.72373602  0.69248970     0.94200
Al1348     Al  0.46300435  0.72900271  0.68983727     1.55600
O1349       O  0.99739877  0.73050098  0.77654735    -0.77500
C1350       C  0.42178984  0.73891812  0.71362904     0.98400
C1351       C  0.00355698  0.78260563  0.68713393     0.93300
O1352       O  0.01543049  0.77790664  0.70818717    -0.82800
O1353       O  0.44217530  0.82003118  0.89513611    -0.82300
C1354       C  0.35157070  0.74678879  0.95856220     0.97100
O1355       O  0.36502153  0.74067130  0.94096247    -0.71400
O1356       O  0.37669877  0.76578294  0.89014472    -0.75000
Al1357     Al  0.39758742  0.76204056  0.91905288     1.49000
C1358       C  0.37555820  0.78473704  0.87813098     0.92300
O1359       O  0.39212136  0.83053521  0.93960903    -0.81200
O1360       O  0.43571960  0.80990100  0.98563465    -0.74800
Al1361     Al  0.41632959  0.82227059  0.91979051     1.90100
O1362       O  0.39546981  0.81878381  0.98512974    -0.73800
O1363       O  0.40185288  0.75776155  0.98721664    -0.73700
O1364       O  0.36226360  0.76797004  0.97408145    -0.79300
O1365       O  0.41882165  0.75452822  0.94485339    -0.77600
O1366       O  0.40452866  0.79127619  0.93880115    -1.13700
O1367       O  0.42724887  0.77739172  0.89336732    -0.72900
C1368       C  0.44350459  0.80048628  0.88503756     0.97800
C1369       C  0.38838265  0.83094560  0.96767501     0.94200
Al1370     Al  0.39941493  0.78897595  0.97923986     1.55600
O1371       O  0.39059832  0.80827862  0.88718906    -0.77500
C1372       C  0.41327573  0.74808960  0.97213241     0.98400
C1373       C  0.45101383  0.83205214  0.97327505     0.93300
O1374       O  0.44416405  0.84029997  0.94996116    -0.82800
O1375       O  0.17638000  0.61525115  0.88905548    -0.82300
C1376       C  0.24802578  0.59234604  0.95023579     0.97100
O1377       O  0.25286816  0.60855311  0.92887232    -0.71400
O1378       O  0.22098538  0.58288189  0.88485433    -0.75000
Al1379     Al  0.23097933  0.61555101  0.90360281     1.49000
C1380       C  0.19919513  0.56739444  0.87245225     0.92300
O1381       O  0.16084516  0.55257244  0.93364062    -0.81200
O1382       O  0.19000988  0.62193864  0.97304552    -0.80200
Al1383     Al  0.17063623  0.58481399  0.91234280     1.90100
O1384       O  0.17787808  0.57020128  0.97779821    -0.73800
O1385       O  0.24022533  0.63733112  0.96783445    -0.73700
O1386       O  0.22788355  0.58487419  0.96682542    -0.79300
O1387       O  0.24398374  0.64990096  0.92039273    -0.77600
O1388       O  0.20320455  0.60116692  0.92796273    -1.13700
O1389       O  0.21577424  0.62594075  0.87243152    -0.72900
C1390       C  0.19566122  0.62847152  0.87148691     0.97800
C1391       C  0.16290205  0.55016003  0.96190211     0.94200
Al1392     Al  0.20839079  0.60338228  0.96811802     1.55600
O1393       O  0.17883758  0.56913437  0.87799983    -0.77500
C1394       C  0.25093206  0.65518051  0.94785135     0.98400
C1395       C  0.16703872  0.61481711  0.96367982     0.93300
O1396       O  0.15607936  0.59715862  0.94335366    -0.82800
O1397       O  0.28781752  0.01193795  0.76813323    -0.82300
C1398       C  0.26460585  0.57945420  0.69634858     0.97100
O1399       O  0.27689842  0.58463649  0.72121222    -0.71400
O1400       O  0.24877540  0.55177554  0.76390297    -0.75000
Al1401     Al  0.28331315  0.56375231  0.74948942     1.49000
C1402       C  0.23568251  0.53068614  0.77872844     0.92300
O1403       O  0.22585069  0.99216134  0.72167966    -0.81200
O1404       O  0.29563191  0.52091548  0.68476088    -0.74800
Al1405     Al  0.25716795  0.00328568  0.74414224     1.90100
O1406       O  0.24396374  0.50881599  0.67646777    -0.73800
O1407       O  0.31216940  0.57145960  0.68770948    -0.73700
O1408       O  0.25979577  0.55919573  0.68130236    -0.79300
O1409       O  0.31830038  0.57799887  0.73687262    -0.77600
O1410       O  0.27268188  0.53567986  0.72594004    -1.13700
O1411       O  0.29289182  0.54974513  0.78390007    -0.72900
C1412       C  0.29866494  0.53151678  0.78505891     0.97800
C1413       C  0.22411288  0.99376798  0.69319948     0.94200
Al1414     Al  0.27746321  0.53962397  0.68585285     1.55600
O1415       O  0.24010453  0.01114674  0.77729627    -0.77500
C1416       C  0.32736268  0.58270603  0.71016215     0.98400
C1417       C  0.28759862  0.99796579  0.69473138     0.93300
O1418       O  0.27000910  0.98773109  0.71497600    -0.82800
O1419       O  0.23253473  0.71707854  0.76114508    -0.82300
C1420       C  0.32107706  0.72858420  0.69701556     0.97100
O1421       O  0.30707117  0.70932525  0.71445992    -0.71400
O1422       O  0.30359457  0.73167547  0.76333781    -0.75000
Al1423     Al  0.27834418  0.70404480  0.74004981     1.49000
C1424       C  0.30187647  0.74943782  0.77768568     0.92300
O1425       O  0.28488126  0.77668969  0.71639910    -0.81200
O1426       O  0.23751587  0.71073529  0.67383307    -0.74800
Al1427     Al  0.25961399  0.74512931  0.73703080     1.90100
O1428       O  0.27997984  0.75981145  0.67104615    -0.73800
O1429       O  0.26780060  0.68898647  0.67400638    -0.73700
O1430       O  0.31096693  0.73943626  0.68134664    -0.79300
O1431       O  0.25310118  0.67370162  0.71925293    -0.77600
O1432       O  0.27055175  0.72490796  0.71885493    -1.13700
O1433       O  0.25257196  0.69472304  0.77053071    -0.72900
C1434       C  0.23428447  0.69948667  0.77587860     0.97800
C1435       C  0.28784484  0.77977589  0.68800936     0.94200
Al1436     Al  0.27372204  0.72484908  0.67831751     1.55600
O1437       O  0.28489626  0.75604068  0.77050726    -0.77500
C1438       C  0.25613837  0.66956410  0.69193675     0.98400
C1439       C  0.22341853  0.71911563  0.68587258     0.93300
O1440       O  0.23208509  0.73659673  0.70686887    -0.82800
C1441       C  0.25564555  0.59752307  0.68585710    -0.00600
C1442       C  0.23610272  0.59867121  0.70294056    -0.12500
C1443       C  0.23249578  0.62053609  0.70100085     0.01600
C1444       C  0.24997911  0.64254283  0.68316892    -0.00700
C1445       C  0.26697072  0.63971848  0.66277792    -0.12500
C1446       C  0.26969847  0.61712529  0.66383640     0.01500
H1447       H  0.22496897  0.58335866  0.71945445     0.14500
H1448       H  0.28004516  0.65614825  0.64830137     0.14500
C1449       C  0.28849553  0.61554613  0.64395886     0.36100
C1450       C  0.21184668  0.62052785  0.71905348     0.36000
N1451       N  0.30332706  0.61432062  0.62753591    -0.44200
N1452       N  0.19497779  0.62004461  0.73334026    -0.44200
C1453       C  0.19616943  0.64779335  0.84941793    -0.00600
C1454       C  0.21391514  0.67471143  0.85515768    -0.12500
C1455       C  0.22392538  0.69309726  0.83131322     0.01600
C1456       C  0.21615565  0.68461414  0.80108035    -0.00700
C1457       C  0.19619916  0.65832228  0.79580493    -0.12500
C1458       C  0.18621565  0.63986175  0.81972150     0.01500
H1459       H  0.22196740  0.68089050  0.87787018     0.14500
H1460       H  0.19018818  0.65167710  0.77264540     0.14500
C1461       C  0.16798644  0.61236673  0.81286310     0.36100
C1462       C  0.24435578  0.71991779  0.83799604     0.36000
N1463       N  0.15334527  0.59028929  0.80755185    -0.44200
N1464       N  0.26071560  0.74139170  0.84342863    -0.44200
C1465       C  0.21706506  0.52995156  0.80185614    -0.00600
C1466       C  0.22091833  0.52497694  0.83200730    -0.12500
C1467       C  0.21172193  0.53400963  0.85600154     0.01600
C1468       C  0.19884064  0.54851699  0.84979841    -0.00700
C1469       C  0.19135272  0.54971469  0.81982673    -0.12500
C1470       C  0.20018075  0.54022590  0.79579806     0.01500
H1471       H  0.23321334  0.51633894  0.83687994     0.14500
H1472       H  0.18061513  0.56000909  0.81493820     0.14500
C1473       C  0.19206998  0.54149623  0.76514895     0.36100
C1474       C  0.21685557  0.52939242  0.88683098     0.36000
N1475       N  0.18486273  0.54179373  0.74072483    -0.44200
N1476       N  0.22062578  0.52536978  0.91155948    -0.44200
C1477       C  0.32318100  0.72792812  0.96130761    -0.00600
C1478       C  0.31493120  0.70802955  0.98313154    -0.12500
C1479       C  0.29018761  0.68512819  0.98106091     0.01600
C1480       C  0.27356409  0.68156604  0.95590213    -0.00700
C1481       C  0.28081755  0.70293614  0.93590130    -0.12500
C1482       C  0.30522832  0.72627922  0.93893647     0.01500
H1483       H  0.32844004  0.70972839  0.00088595     0.14500
H1484       H  0.26778762  0.70113048  0.91735587     0.14500
C1485       C  0.31117006  0.74848170  0.91951447     0.36100
C1486       C  0.28349309  0.66514593  0.00406286     0.36000
N1487       N  0.31527788  0.76651582  0.90466615    -0.44200
N1488       N  0.27824919  0.64941542  0.02284064    -0.44200
C1489       C  0.35582265  0.77780025  0.85322513    -0.00600
C1490       C  0.33770790  0.75066624  0.84898464    -0.12500
C1491       C  0.31929441  0.74168506  0.82566791     0.01600
C1492       C  0.31859484  0.75985573  0.80507253    -0.00700
C1493       C  0.33578181  0.78711347  0.80955406    -0.12500
C1494       C  0.35437292  0.79624650  0.83351558     0.01500
H1495       H  0.33769532  0.73596867  0.86411421     0.14500
H1496       H  0.33535917  0.80113031  0.79378205     0.14500
C1497       C  0.37203332  0.82437724  0.83666057     0.36100
C1498       C  0.30122232  0.71340485  0.82367117     0.36000
N1499       N  0.38618655  0.84697083  0.83913513    -0.44200
N1500       N  0.28693460  0.69074820  0.82244109    -0.44200
C1501       C  0.35582660  0.60295200  0.70652511    -0.00600
C1502       C  0.37106377  0.61120076  0.73318854    -0.12500
C1503       C  0.39547963  0.63420969  0.73408029     0.01600
C1504       C  0.40524118  0.65024535  0.70796696    -0.00700
C1505       C  0.39200673  0.64042757  0.68014771    -0.12500
C1506       C  0.36753631  0.61656274  0.67912968     0.01500
H1507       H  0.36319334  0.60058446  0.75432411     0.14500
H1508       H  0.39975123  0.65223560  0.65971550     0.14500
C1509       C  0.35484980  0.60707686  0.65004905     0.36100
C1510       C  0.40901392  0.64152894  0.76299586     0.36000
N1511       N  0.34516237  0.59931887  0.62650317    -0.44200
N1512       N  0.41898420  0.64643742  0.78667239    -0.44200
C1513       C  0.39933738  0.74337256  0.70718450    -0.00600
C1514       C  0.38760205  0.73705947  0.67803693    -0.12500
C1515       C  0.36280671  0.73467541  0.67298389     0.01600
C1516       C  0.34957873  0.73866832  0.69728855    -0.00700
C1517       C  0.36240771  0.74779925  0.72523942    -0.12500
C1518       C  0.38708639  0.75037696  0.73044861     0.01500
H1519       H  0.39690795  0.73227938  0.65963650     0.14500
H1520       H  0.35233226  0.75140586  0.74380039     0.14500
C1521       C  0.39814458  0.75858724  0.76057029     0.36100
C1522       C  0.35047833  0.72630165  0.64351809     0.36000
N1523       N  0.40666118  0.76500167  0.78484692    -0.44200
N1524       N  0.34054399  0.71974084  0.61989310    -0.44200
C1525       C  0.46247285  0.80354604  0.86089655    -0.00600
C1526       C  0.47834134  0.79201627  0.86513716    -0.12500
C1527       C  0.48891044  0.78548148  0.84009960     0.01600
C1528       C  0.48249739  0.78923209  0.81030816    -0.00700
C1529       C  0.46935255  0.80360011  0.80618281    -0.12500
C1530       C  0.45972702  0.81120854  0.83128500     0.01500
H1531       H  0.48093749  0.78643624  0.88785373     0.14500
H1532       H  0.46435408  0.80660460  0.78333626     0.14500
C1533       C  0.44439513  0.82399154  0.82582398     0.36100
C1534       C  0.50494468  0.77342929  0.84533469     0.36000
N1535       N  0.43223198  0.83437404  0.82143605    -0.44200
N1536       N  0.01687810  0.76288360  0.84812817    -0.44200
C1537       C  0.31546788  0.58339329  0.95099544    -0.00600
C1538       C  0.30458776  0.58453336  0.97927347    -0.12500
C1539       C  0.28045931  0.58451219  0.98069312     0.01600
C1540       C  0.26673528  0.58253412  0.95361529    -0.00700
C1541       C  0.27577524  0.57775908  0.92625746    -0.12500
C1542       C  0.30006536  0.57912020  0.92428972     0.01500
H1543       H  0.31585497  0.58763553  0.99995289     0.14500
H1544       H  0.26521641  0.57625297  0.90535583     0.14500
C1545       C  0.30951865  0.57994212  0.89366399     0.36100
C1546       C  0.27137490  0.58867516  0.00958221     0.36000
N1547       N  0.31676636  0.58155148  0.86883421    -0.44200
N1548       N  0.26401101  0.59182450  0.03282441    -0.44200
C1549       C  0.31898546  0.53434145  0.80719484    -0.00600
C1550       C  0.31239685  0.52898846  0.83806298    -0.12500
C1551       C  0.33223664  0.53857929  0.86046376     0.01600
C1552       C  0.35887124  0.55545307  0.85214191    -0.00700
C1553       C  0.36556717  0.55885110  0.82116352    -0.12500
C1554       C  0.34584291  0.54744933  0.79873666     0.01500
H1555       H  0.29177827  0.51848467  0.84476808     0.14500
H1556       H  0.38605496  0.57115258  0.81450415     0.14500
C1557       C  0.35337024  0.54983134  0.76712098     0.36100
C1558       C  0.32472403  0.53262226  0.89202236     0.36000
N1559       N  0.35915040  0.55108790  0.74173519    -0.44200
N1560       N  0.31879763  0.52779110  0.91732329    -0.44200
C1561       C  0.41711069  0.72660689  0.98419512    -0.00600
C1562       C  0.43754454  0.72343484  0.97178234    -0.12500
C1563       C  0.43548459  0.69846888  0.97120189     0.01600
C1564       C  0.41203881  0.67635243  0.98124922    -0.00700
C1565       C  0.39377701  0.68007527  0.99801957    -0.12500
C1566       C  0.39686702  0.70543112  0.00077166     0.01500
H1567       H  0.45395873  0.73990031  0.96031808     0.14500
H1568       H  0.37636421  0.66306406  0.00728332     0.14500
C1569       C  0.37836370  0.70880173  0.01929622     0.36100
C1570       C  0.45649630  0.69545561  0.95802297     0.36000
N1571       N  0.36406058  0.71154390  0.03511272    -0.44200
N1572       N  0.47324275  0.69281980  0.94760007    -0.44200
C1573       C  0.45518591  0.65938047  0.86320286    -0.00600
C1574       C  0.46715339  0.65320681  0.83902376    -0.12500
C1575       C  0.47850210  0.67070039  0.81419323     0.01600
C1576       C  0.47933802  0.69531899  0.81423400    -0.00700
C1577       C  0.47001096  0.70251745  0.83953558    -0.12500
C1578       C  0.45721769  0.68485333  0.86316162     0.01500
H1579       H  0.46562338  0.63387710  0.83814896     0.14500
H1580       H  0.46907566  0.72065445  0.83869707     0.14500
C1581       C  0.44303377  0.69260959  0.88387050     0.36100
C1582       C  0.48713567  0.66229626  0.78779539     0.36000
N1583       N  0.43109698  0.69906938  0.89916110    -0.44200
N1584       N  0.49406646  0.65576443  0.76645156    -0.44200
C1585       C  0.35678051  0.97230778  0.00871468    -0.00600
C1586       C  0.36462834  0.99459981  0.02713057    -0.12500
C1587       C  0.37482234  0.51965488  0.01239521     0.01600
C1588       C  0.37953957  0.52270563  0.98062927    -0.00700
C1589       C  0.37421389  0.50051004  0.96294311    -0.12500
C1590       C  0.36244219  0.97555382  0.97725260     0.01500
H1591       H  0.36027100  0.99210575  0.05130243     0.14500
H1592       H  0.37798514  0.50272494  0.93865982     0.14500
C1593       C  0.35539136  0.95300268  0.95770209     0.36100
C1594       C  0.38052976  0.54182712  0.03204768     0.36000
N1595       N  0.34970986  0.93486684  0.94213657    -0.44200
N1596       N  0.38486049  0.55943485  0.04793126    -0.44200
C1597       C  0.34923276  0.86940113  0.00995442    -0.00600
C1598       C  0.35356127  0.87138440  0.97828282    -0.12500
C1599       C  0.36645734  0.85947964  0.96384464     0.01600
C1600       C  0.37539457  0.84508626  0.98117471    -0.00700
C1601       C  0.37115843  0.84329923  0.01288214    -0.12500
C1602       C  0.35819936  0.85504184  0.02725985     0.01500
H1603       H  0.34687702  0.88236820  0.96459625     0.14500
H1604       H  0.37763214  0.83223903  0.02675522     0.14500
C1605       C  0.35358441  0.85100602  0.05962637     0.36100
C1606       C  0.37009838  0.86244643  0.93131372     0.36000
N1607       N  0.34983099  0.84768318  0.08552621    -0.44200
N1608       N  0.37301117  0.86487814  0.90523728    -0.44200
C1609       C  0.28736901  0.84024276  0.13091752    -0.00600
C1610       C  0.26293579  0.81675413  0.12811165    -0.12500
C1611       C  0.25293099  0.79794707  0.15114435     0.01600
C1612       C  0.26801448  0.80138412  0.17770751    -0.00700
C1613       C  0.29392215  0.82316646  0.17908624    -0.12500
C1614       C  0.30362891  0.84272003  0.15603366     0.01500
H1615       H  0.25027620  0.81390441  0.10878466     0.14500
H1616       H  0.30573898  0.82609132  0.19925881     0.14500
C1617       C  0.32937607  0.86581964  0.15985533     0.36100
C1618       C  0.22578310  0.77695876  0.14799422     0.36000
N1619       N  0.34998950  0.88442635  0.16294870    -0.44200
N1620       N  0.20376991  0.76087408  0.14563421    -0.44200
C1621       C  0.02592796  0.64719924  0.01605329    -0.00600
C1622       C  0.00335094  0.64138167  0.03302577    -0.12500
C1623       C  0.47720383  0.63073079  0.01989811     0.01600
C1624       C  0.47421377  0.62204046  0.98919020    -0.00700
C1625       C  0.99802136  0.62758545  0.97147346    -0.12500
C1626       C  0.02304477  0.63983702  0.98504123     0.01500
H1627       H  0.00543123  0.64713487  0.05679991     0.14500
H1628       H  0.99632182  0.62218364  0.94761352     0.14500
C1629       C  0.04539462  0.64425215  0.96664468     0.36100
C1630       C  0.45557104  0.62944329  0.03720455     0.36000
N1631       N  0.06330968  0.64782041  0.95192228    -0.44200
N1632       N  0.43832194  0.62858366  0.05109989    -0.44200
C1633       C  0.12885218  0.65351341  0.00514437    -0.00600
C1634       C  0.11483593  0.62587344  0.00107872    -0.12500
C1635       C  0.12662379  0.61284700  0.98680685     0.01600
C1636       C  0.15301775  0.62755079  0.97684686    -0.00700
C1637       C  0.16696120  0.65511941  0.98064576    -0.12500
C1638       C  0.15513438  0.66823453  0.99437969     0.01500
H1639       H  0.09467702  0.61440521  0.00922748     0.14500
H1640       H  0.18729892  0.66646118  0.97295236     0.14500
C1641       C  0.17096071  0.69661837  0.99821598     0.36100
C1642       C  0.11178996  0.58432342  0.98407447     0.36000
N1643       N  0.18382668  0.71935783  0.00105609    -0.44200
N1644       N  0.10007553  0.56146185  0.98184733    -0.44200
C1645       C  0.18389848  0.77049593  0.03534716    -0.00600
C1646       C  0.18371379  0.78824364  0.01381199    -0.12500
C1647       C  0.20637153  0.81261915  0.00832799     0.01600
C1648       C  0.22963521  0.81949979  0.02448474    -0.00700
C1649       C  0.23078814  0.80067906  0.04319069    -0.12500
C1650       C  0.20814377  0.77616997  0.04863602     0.01500
H1651       H  0.16544770  0.78389142  0.00262064     0.14500
H1652       H  0.24898681  0.80582481  0.05506218     0.14500
C1653       C  0.21043633  0.75734912  0.06772915     0.36100
C1654       C  0.20501302  0.83060665  0.98688475     0.36000
N1655       N  0.21271432  0.74227053  0.08261265    -0.44200
N1656       N  0.20372262  0.84454688  0.96914261    -0.44200
C1657       C  0.14795329  0.68172344  0.14105968    -0.00600
C1658       C  0.17532854  0.69378638  0.13658557    -0.12500
C1659       C  0.19281086  0.70311760  0.16147896     0.01600
C1660       C  0.18272601  0.70173694  0.19111895    -0.00700
C1661       C  0.15538217  0.68590780  0.19562410    -0.12500
C1662       C  0.13807957  0.67530871  0.17088529     0.01500
H1663       H  0.18308351  0.69800648  0.11363914     0.14500
H1664       H  0.14738919  0.68329538  0.21836856     0.14500
C1665       C  0.11010030  0.65934258  0.17644651     0.36100
C1666       C  0.22085151  0.71644438  0.15562354     0.36000
N1667       N  0.08773006  0.64587717  0.18087322    -0.44200
N1668       N  0.24333476  0.72699011  0.15096679    -0.44200
C1669       C  0.10299711  0.74782785  0.31038286    -0.00600
C1670       C  0.10416304  0.72693061  0.29611420    -0.12500
C1671       C  0.12742854  0.72570772  0.29684347     0.01600
C1672       C  0.15014267  0.74628875  0.31075413    -0.00700
C1673       C  0.14779999  0.76490584  0.32882076    -0.12500
C1674       C  0.12414533  0.76558586  0.32901486     0.01500
H1675       H  0.08774064  0.71289821  0.28234826     0.14500
H1676       H  0.16517531  0.78070317  0.33982088     0.14500
C1677       C  0.12313780  0.78665700  0.34526727     0.36100
C1678       C  0.12818620  0.70410163  0.28168617     0.36000
N1679       N  0.12227111  0.80352071  0.35826775    -0.44200
N1680       N  0.12861430  0.68641494  0.27022865    -0.44200
C1681       C  0.05305023  0.69102658  0.14474171    -0.00600
C1682       C  0.05363597  0.68367605  0.17488233    -0.12500
C1683       C  0.04353444  0.69246878  0.19825664     0.01600
C1684       C  0.03372216  0.70963820  0.19151575    -0.00700
C1685       C  0.02922782  0.71329304  0.16104468    -0.12500
C1686       C  0.03848761  0.70365950  0.13758739     0.01500
H1687       H  0.06395865  0.67319633  0.18050304     0.14500
H1688       H  0.51815561  0.72259141  0.16002168     0.14500
C1689       C  0.03498980  0.70888320  0.10632177     0.36100
C1690       C  0.04432997  0.68465644  0.22919036     0.36000
N1691       N  0.52795888  0.71020831  0.08523257    -0.44200
N1692       N  0.04427436  0.67799397  0.25397265    -0.44200
C1693       C  0.47725951  0.84827711  0.98710568    -0.00600
C1694       C  0.47904916  0.84866247  0.01899838    -0.12500
C1695       C  0.00394694  0.86644027  0.03186832     0.01600
C1696       C  0.02703308  0.87303991  0.01511126    -0.00700
C1697       C  0.02520980  0.86863147  0.98353541    -0.12500
C1698       C  0.00080661  0.85698642  0.96871775     0.01500
H1699       H  0.46116931  0.83907435  0.03258114     0.14500
H1700       H  0.04290363  0.87389235  0.97043574     0.14500
C1701       C  0.99996113  0.85117985  0.93665754     0.36100
C1702       C  0.50421814  0.85919393  0.06634344     0.36000
N1703       N  0.99977966  0.84662686  0.91099275    -0.44200
N1704       N  0.50471993  0.85808059  0.09259565    -0.44200
C1705       C  0.14796944  0.52389599  0.97726721    -0.00600
C1706       C  0.14238338  0.52329835  0.00849944    -0.12500
C1707       C  0.13096564  0.99912057  0.02508635     0.01600
C1708       C  0.12352375  0.97493963  0.00973005    -0.00700
C1709       C  0.12811019  0.97585395  0.97812991    -0.12500
C1710       C  0.14060670  0.49967135  0.96231494     0.01500
H1711       H  0.14768337  0.54168061  0.02031474     0.14500
H1712       H  0.12274590  0.95770049  0.96578309     0.14500
C1713       C  0.14611195  0.49863667  0.93045540     0.36100
C1714       C  0.12760574  0.00038144  0.05749439     0.36000
N1715       N  0.15046504  0.49768308  0.90493090    -0.44200
N1716       N  0.12502482  0.00151347  0.08346980    -0.44200
C1717       C  0.09234761  0.81864039  0.05011474    -0.00600
C1718       C  0.08810896  0.80492617  0.07766388    -0.12500
C1719       C  0.08790346  0.78096180  0.07899282     0.01600
C1720       C  0.09058387  0.76923326  0.05202906    -0.00700
C1721       C  0.09149195  0.78112072  0.02397804    -0.12500
C1722       C  0.09260569  0.80580586  0.02277618     0.01500
H1723       H  0.08684962  0.81384321  0.09886039     0.14500
H1724       H  0.09348578  0.77221418  0.00316952     0.14500
C1725       C  0.09542681  0.81791316  0.99340259     0.36100
C1726       C  0.08695654  0.77019555  0.10884414     0.36000
N1727       N  0.09751864  0.82747317  0.96977212    -0.44200
N1728       N  0.08660431  0.76248424  0.13316893    -0.44200
C1729       C  0.06462239  0.86053136  0.15138456    -0.00600
C1730       C  0.03918804  0.83827705  0.14751598    -0.12500
C1731       C  0.02897890  0.81708582  0.16864965     0.01600
C1732       C  0.04461081  0.81780595  0.19352579    -0.00700
C1733       C  0.06863200  0.84106711  0.19881997    -0.12500
C1734       C  0.07847641  0.86234071  0.17856996     0.01500
H1735       H  0.02805009  0.83661319  0.12711153     0.14500
H1736       H  0.08041708  0.84224333  0.21846803     0.14500
C1737       C  0.10360602  0.88538531  0.18583600     0.36100
C1738       C  0.00318244  0.79436131  0.16364465     0.36000
N1739       N  0.12378522  0.90364198  0.19190728    -0.44200
N1740       N  0.98234480  0.77623041  0.15994083    -0.44200
C1741       C  0.18639036  0.91698160  0.02601305    -0.00600
C1742       C  0.20654795  0.93442727  0.04548605    -0.12500
C1743       C  0.23127625  0.93632757  0.04502219     0.01600
C1744       C  0.23586662  0.91978706  0.02546908    -0.00700
C1745       C  0.21693298  0.90508504  0.00310337    -0.12500
C1746       C  0.19208530  0.90336117  0.00340027     0.01500
H1747       H  0.20226172  0.94495006  0.06286677     0.14500
H1748       H  0.22051461  0.89288960  0.98739518     0.14500
C1749       C  0.17203698  0.88533726  0.98259364     0.36100
C1750       C  0.25098675  0.95431143  0.06612447     0.36000
N1751       N  0.15617263  0.87087084  0.96570576    -0.44200
N1752       N  0.26663240  0.96904096  0.08298050    -0.44200
C1753       C  0.24380180  0.89628003  0.27431341    -0.00600
C1754       C  0.24730706  0.88484690  0.24784208    -0.12500
C1755       C  0.24477004  0.85978578  0.24814293     0.01600
C1756       C  0.23940673  0.84552446  0.27572298    -0.00700
C1757       C  0.23833181  0.85784307  0.30281017    -0.12500
C1758       C  0.24020493  0.88288253  0.30235429     0.01500
H1759       H  0.25043055  0.89474920  0.22612415     0.14500
H1760       H  0.23441327  0.84724284  0.32416184     0.14500
C1761       C  0.23697350  0.89344925  0.33076712     0.36100
C1762       C  0.24635684  0.84890925  0.21916728     0.36000
N1763       N  0.23432348  0.90182189  0.35358763    -0.44200
N1764       N  0.24716309  0.84038540  0.19564818    -0.44200
C1765       C  0.28771570  0.97123289  0.18234672    -0.00600
C1766       C  0.29080284  0.94972358  0.19064995    -0.12500
C1767       C  0.29965132  0.93781999  0.16962241     0.01600
C1768       C  0.30641535  0.94792202  0.13983305    -0.00700
C1769       C  0.30669585  0.97159204  0.13275031    -0.12500
C1770       C  0.29685166  0.98300699  0.15362545     0.01500
H1771       H  0.28410506  0.94075605  0.21283125     0.14500
H1772       H  0.31199281  0.97955774  0.10994610     0.14500
C1773       C  0.29529575  0.50617431  0.14300841     0.36100
C1774       C  0.29944186  0.91383794  0.17831648     0.36000
N1775       N  0.29276023  0.52372810  0.13515966    -0.44200
N1776       N  0.29920196  0.89460064  0.18535256    -0.44200
C1777       C  0.15904172  0.89648715  0.29142091    -0.00600
C1778       C  0.16176647  0.87391120  0.28975520    -0.12500
C1779       C  0.13979931  0.84856082  0.28929771     0.01600
C1780       C  0.11432550  0.84518946  0.29263973    -0.00700
C1781       C  0.11149306  0.86758482  0.29695896    -0.12500
C1782       C  0.13371680  0.89331702  0.29589019     0.01500
H1783       H  0.18116738  0.87620166  0.28588651     0.14500
H1784       H  0.09186255  0.86505357  0.29893466     0.14500
C1785       C  0.12978077  0.91583995  0.29691215     0.36100
C1786       C  0.14395049  0.82668499  0.28200869     0.36000
N1787       N  0.12624719  0.93368951  0.29782660    -0.44200
N1788       N  0.14774541  0.80960744  0.27545063    -0.44200
C1789       C  0.19142352  0.98252917  0.18177902    -0.00600
C1790       C  0.20076532  0.98807321  0.15180937    -0.12500
C1791       C  0.18286386  0.97907187  0.12756143     0.01600
C1792       C  0.15555550  0.96391263  0.13356075    -0.00700
C1793       C  0.14645789  0.96327441  0.16323013    -0.12500
C1794       C  0.16436618  0.97267378  0.18744738     0.01500
H1795       H  0.22171296  0.99668662  0.14727330     0.14500
H1796       H  0.12542875  0.95268827  0.16794144     0.14500
C1797       C  0.15589333  0.47129220  0.21868098     0.36100
C1798       C  0.19276104  0.98417733  0.09677433     0.36000
N1799       N  0.14861148  0.46985734  0.24346574    -0.44200
N1800       N  0.20057471  0.98872103  0.07205388    -0.44200
C1801       C  0.30041754  0.80664631  0.67378429    -0.00600
C1802       C  0.29441915  0.80889228  0.64323960    -0.12500
C1803       C  0.30651717  0.83343042  0.62814682     0.01600
C1804       C  0.32570809  0.85642657  0.64331004    -0.00700
C1805       C  0.33145194  0.85425146  0.67391645    -0.12500
C1806       C  0.31884021  0.82990533  0.68927381     0.01500
H1807       H  0.28008883  0.79135752  0.63101937     0.14500
H1808       H  0.34573674  0.87181908  0.68613951     0.14500
C1809       C  0.32565125  0.82950057  0.72073712     0.36100
C1810       C  0.29931919  0.83425270  0.59693349     0.36000
N1811       N  0.33104881  0.82935013  0.74602175    -0.44200
N1812       N  0.29346259  0.83493180  0.57195168    -0.44200
C1813       C  0.31866055  0.95318225  0.65164703    -0.00600
C1814       C  0.31671790  0.97279830  0.63544825    -0.12500
C1815       C  0.30652270  0.98737790  0.64896727     0.01600
C1816       C  0.29775265  0.98227494  0.67951941    -0.00700
C1817       C  0.29879815  0.96194170  0.69548975    -0.12500
C1818       C  0.30944588  0.94754429  0.68186928     0.01500
H1819       H  0.32394332  0.97733746  0.61222598     0.14500
H1820       H  0.29183591  0.95769063  0.71879335     0.14500
C1821       C  0.31027775  0.92687967  0.69903468     0.36100
C1822       C  0.30509229  0.00715036  0.63052100     0.36000
N1823       N  0.31093545  0.91025793  0.71269175    -0.44200
N1824       N  0.30409020  0.02298606  0.61563063    -0.44200
C1825       C  0.31112574  0.79379061  0.31355174    -0.00600
C1826       C  0.31521425  0.80583876  0.34242085    -0.12500
C1827       C  0.33987748  0.81727072  0.35700872     0.01600
C1828       C  0.36146054  0.81716269  0.34268562    -0.00700
C1829       C  0.35742617  0.80490712  0.31399067    -0.12500
C1830       C  0.33259302  0.79302142  0.29958362     0.01500
H1831       H  0.29903423  0.80645752  0.35374707     0.14500
H1832       H  0.37384356  0.80474598  0.30264552     0.14500
C1833       C  0.33004062  0.78089446  0.27014184     0.36100
C1834       C  0.34282533  0.83028994  0.38594309     0.36000
N1835       N  0.32794717  0.77108641  0.24658925    -0.44200
N1836       N  0.34528785  0.84080094  0.40909377    -0.44200
C1837       C  0.49062507  0.79288201  0.31700558    -0.00600
C1838       C  0.49107880  0.79661702  0.34863998    -0.12500
C1839       C  0.47750187  0.80827055  0.36190409     0.01600
C1840       C  0.46329721  0.81645676  0.34324586    -0.00700
C1841       C  0.46258728  0.81236501  0.31170080    -0.12500
C1842       C  0.47594271  0.80056476  0.29849024     0.01500
H1843       H  0.50235715  0.79071684  0.36296823     0.14500
H1844       H  0.45205882  0.81905568  0.29722460     0.14500
C1845       C  0.95965498  0.78257956  0.27123780     0.36100
C1846       C  0.48002848  0.81324350  0.39426582     0.36000
N1847       N  0.95329771  0.77494671  0.24662283    -0.44200
N1848       N  0.48235352  0.81722449  0.42020216    -0.44200
C1849       C  0.39551467  0.88429305  0.46087139    -0.00600
C1850       C  0.39627814  0.90873497  0.45821568    -0.12500
C1851       C  0.38727304  0.91856877  0.48132583     0.01600
C1852       C  0.37577384  0.90333274  0.50778893    -0.00700
C1853       C  0.37203702  0.87751979  0.50912373    -0.12500
C1854       C  0.38204473  0.86798793  0.48607630     0.01500
H1855       H  0.40586040  0.92145027  0.43884069     0.14500
H1856       H  0.36317477  0.86558882  0.52925408     0.14500
C1857       C  0.37960977  0.84227174  0.48990189     0.36100
C1858       C  0.39250470  0.94548362  0.47808586     0.36000
N1859       N  0.37757752  0.82160420  0.49303059    -0.44200
N1860       N  0.39752709  0.96728593  0.47549411    -0.44200
C1861       C  0.17957365  0.64178295  0.34817789    -0.00600
C1862       C  0.19665690  0.66406033  0.36565093    -0.12500
C1863       C  0.21105269  0.68921656  0.35235196     0.01600
C1864       C  0.20912767  0.69223896  0.32070634    -0.00700
C1865       C  0.19200192  0.66992190  0.30331491    -0.12500
C1866       C  0.17712931  0.64497618  0.31667099     0.01500
H1867       H  0.19862897  0.66183562  0.38983789     0.14500
H1868       H  0.18984564  0.67201911  0.27912522     0.14500
C1869       C  0.16016336  0.62297074  0.29713854     0.36100
C1870       C  0.22789589  0.71140885  0.37165577     0.36000
N1871       N  0.14651169  0.60544568  0.28141440    -0.44200
N1872       N  0.24129646  0.72926879  0.38710062    -0.44200
C1873       C  0.21782698  0.52531205  0.31036565    -0.00600
C1874       C  0.20602143  0.53697936  0.29342369    -0.12500
C1875       C  0.19356882  0.54931582  0.30777202     0.01600
C1876       C  0.19306580  0.55055061  0.34001406    -0.00700
C1877       C  0.20635852  0.54030501  0.35684687    -0.12500
C1878       C  0.21851069  0.52768149  0.34247776     0.01500
H1879       H  0.20445111  0.03430158  0.26849568     0.14500
H1880       H  0.20640835  0.54117074  0.38150062     0.14500
C1881       C  0.23133806  0.51723531  0.36145772     0.36100
C1882       C  0.18103610  0.55985947  0.28850319     0.36000
N1883       N  0.24150625  0.50878780  0.37670981    -0.44200
N1884       N  0.16950899  0.06667859  0.27196494    -0.44200
C1885       C  0.07290797  0.98068174  0.34917891    -0.00600
C1886       C  0.07013168  0.95791175  0.36340586    -0.12500
C1887       C  0.04608410  0.93405503  0.36216028     0.01600
C1888       C  0.02424940  0.93326008  0.34753751    -0.00700
C1889       C  0.02826871  0.95471098  0.32935083    -0.12500
C1890       C  0.05255710  0.97844247  0.32998149     0.01500
H1891       H  0.08590514  0.95937522  0.37769264     0.14500
H1892       H  0.01165950  0.95408501  0.31760213     0.14500
C1893       C  0.05487448  0.00118992  0.31413268     0.36100
C1894       C  0.04364168  0.91104701  0.37752160     0.36000
N1895       N  0.05830787  0.51877791  0.30196432    -0.44200
N1896       N  0.04167963  0.89243835  0.38940843    -0.44200
C1897       C  0.04089783  0.85782602  0.64149459    -0.00600
C1898       C  0.05545183  0.84518319  0.64789476    -0.12500
C1899       C  0.04371213  0.82066258  0.66273650     0.01600
C1900       C  0.01682838  0.80826120  0.67109190    -0.00700
C1901       C  0.00200296  0.82037005  0.66352322    -0.12500
C1902       C  0.01378585  0.84501071  0.64902573     0.01500
H1903       H  0.07623662  0.85479762  0.64198728     0.14500
H1904       H  0.48063321  0.80852897  0.66666101     0.14500
C1905       C  0.99750983  0.85644813  0.64159338     0.36100
C1906       C  0.05944154  0.80830555  0.66834764     0.36000
N1907       N  0.48212823  0.86020279  0.62733931    -0.44200
N1908       N  0.07194276  0.79828644  0.67281557    -0.44200
C1909       C  0.14701163  0.95303129  0.65104378    -0.00600
C1910       C  0.16970157  0.95885849  0.63404128    -0.12500
C1911       C  0.19484421  0.97140866  0.64730011     0.01600
C1912       C  0.19784965  0.97849801  0.67840321    -0.00700
C1913       C  0.17516195  0.97173393  0.69576855    -0.12500
C1914       C  0.14998704  0.95923138  0.68257062     0.01500
H1915       H  0.16797571  0.95406735  0.60999236     0.14500
H1916       H  0.17703422  0.47651884  0.71967703     0.14500
C1917       C  0.12792014  0.95370487  0.70211848     0.36100
C1918       C  0.21708589  0.97639673  0.62839907     0.36000
N1919       N  0.11034489  0.94936828  0.71790441    -0.44200
N1920       N  0.23489564  0.98035438  0.61324834    -0.44200
C1921       C  0.49266084  0.92752191  0.60685804    -0.00600
C1922       C  0.47926842  0.92533166  0.57958972    -0.12500
C1923       C  0.45619350  0.92672093  0.57919903     0.01600
C1924       C  0.44582494  0.93046471  0.60672607    -0.00700
C1925       C  0.45730817  0.92931485  0.63433251    -0.12500
C1926       C  0.48038158  0.92752103  0.63465376     0.01500
H1927       H  0.48750459  0.92380804  0.55803788     0.14500
H1928       H  0.44892675  0.93092314  0.65572045     0.14500
C1929       C  0.49080791  0.92579601  0.66374926     0.36100
C1930       C  0.44442738  0.92508523  0.54981300     0.36000
N1931       N  0.49872382  0.92391888  0.68717763    -0.44200
N1932       N  0.43556986  0.92393795  0.52596699    -0.44200
C1933       C  0.13575514  0.98471591  0.52145973    -0.00600
C1934       C  0.13246085  0.97272022  0.49285249    -0.12500
C1935       C  0.13900063  0.98801067  0.46631585     0.01600
C1936       C  0.15064525  0.51644940  0.47009391    -0.00700
C1937       C  0.15835285  0.52829062  0.49895435    -0.12500
C1938       C  0.15101570  0.51252127  0.52516678     0.01500
H1939       H  0.12151015  0.95127298  0.49095071     0.14500
H1940       H  0.16725602  0.54961433  0.50131278     0.14500
C1941       C  0.15772494  0.52514554  0.55468413     0.36100
C1942       C  0.13206089  0.97460237  0.43726053     0.36000
N1943       N  0.16339188  0.53513186  0.57839936    -0.44200
N1944       N  0.12633126  0.96369403  0.41407600    -0.44200
C1945       C  0.49253690  0.87448768  0.46311792    -0.00600
C1946       C  0.01896071  0.89929073  0.45903695    -0.12500
C1947       C  0.03856076  0.90997671  0.48119309     0.01600
C1948       C  0.03490104  0.89697718  0.50942678    -0.00700
C1949       C  0.51001443  0.87057197  0.51211146    -0.12500
C1950       C  0.48922352  0.86065677  0.49056430     0.01500
H1951       H  0.02172072  0.91042781  0.43828710     0.14500
H1952       H  0.50671351  0.86110393  0.53414367     0.14500
C1953       C  0.46407112  0.83802275  0.49825520     0.36100
C1954       C  0.06060829  0.93607810  0.47531029     0.36000
N1955       N  0.44385872  0.81987385  0.50440833    -0.44200
N1956       N  0.07731400  0.95743306  0.47031154    -0.44200
C1957       C  0.19574558  0.70615811  0.67638871    -0.00600
C1958       C  0.18112534  0.67871248  0.68022784    -0.12500
C1959       C  0.15570156  0.66394682  0.66857259     0.01600
C1960       C  0.14437476  0.67675712  0.65216141    -0.00700
C1961       C  0.15905163  0.70451537  0.64868952    -0.12500
C1962       C  0.18458663  0.71931206  0.66094062     0.01500
H1963       H  0.18991285  0.66865351  0.69206766     0.14500
H1964       H  0.15055787  0.71467122  0.63657070     0.14500
C1965       C  0.19927181  0.74765412  0.65662240     0.36100
C1966       C  0.14231049  0.63561837  0.67338337     0.36000
N1967       N  0.21110365  0.77039607  0.65328459    -0.44200
N1968       N  0.13174954  0.61300052  0.67761921    -0.44200
C1969       C  0.04651581  0.68238961  0.65398669    -0.00600
C1970       C  0.04411632  0.70122616  0.63638438    -0.12500
C1971       C  0.03265965  0.71546536  0.64847398     0.01600
C1972       C  0.02382112  0.71131752  0.67894103    -0.00700
C1973       C  0.02696367  0.69325435  0.69676549    -0.12500
C1974       C  0.03755631  0.67842327  0.68462549     0.01500
H1975       H  0.05089288  0.70465076  0.61298049     0.14500
H1976       H  0.01987727  0.68975150  0.72004717     0.14500
C1977       C  0.03725736  0.65825055  0.70398299     0.36100
C1978       C  0.52339983  0.72881481  0.62841125     0.36000
N1979       N  0.03669424  0.64197300  0.71954005    -0.44200
N1980       N  0.51826140  0.74123128  0.61222892    -0.44200
C1981       C  0.48466263  0.56250467  0.65110363    -0.00600
C1982       C  0.46412516  0.56350011  0.63610649    -0.12500
C1983       C  0.43905565  0.54100009  0.63416690     0.01600
C1984       C  0.43449703  0.51709319  0.64742883    -0.00700
C1985       C  0.45377097  0.51737238  0.66667520    -0.12500
C1986       C  0.47891892  0.53999534  0.66852825     0.01500
H1987       H  0.46843961  0.58098292  0.62336456     0.14500
H1988       H  0.45031701  0.49910229  0.67724862     0.14500
C1989       C  0.99991282  0.53910302  0.68821275     0.36100
C1990       C  0.41901809  0.54226972  0.61634032     0.36000
N1991       N  0.01582050  0.53814092  0.70290097    -0.44200
N1992       N  0.40300085  0.54363857  0.60234174    -0.44200
C1993       C  0.08447408  0.56157393  0.63875998    -0.00600
C1994       C  0.07230682  0.54162480  0.66065833    -0.12500
C1995       C  0.07662588  0.52002465  0.66060125     0.01600
C1996       C  0.09235081  0.51801541  0.63757406    -0.00700
C1997       C  0.10773129  0.54002528  0.61910336    -0.12500
C1998       C  0.10455323  0.56222223  0.62042105     0.01500
H1999       H  0.05790453  0.54176396  0.67601293     0.14500
H2000       H  0.12070049  0.53906406  0.60212811     0.14500
C2001       C  0.12201893  0.58548244  0.60305873     0.36100
C2002       C  0.06735019  0.00155073  0.68485589     0.36000
N2003       N  0.13653076  0.60450880  0.59002489    -0.44200
N2004       N  0.05877937  0.98606519  0.70417860    -0.44200
C2005       C  0.10851875  0.61647044  0.52956715    -0.00600
C2006       C  0.10483207  0.59083407  0.53084694    -0.12500
C2007       C  0.11606502  0.58176051  0.50948219     0.01600
C2008       C  0.13018933  0.59787534  0.48434983    -0.00700
C2009       C  0.13541735  0.62430656  0.48388710    -0.12500
C2010       C  0.12492928  0.63378228  0.50658183     0.01500
H2011       H  0.09250181  0.57740761  0.54859386     0.14500
H2012       H  0.14626455  0.63700727  0.46496355     0.14500
C2013       C  0.12956153  0.66048333  0.50460517     0.36100
C2014       C  0.11159578  0.55518459  0.51361066     0.36000
N2015       N  0.13327772  0.68192513  0.50320540    -0.44200
N2016       N  0.10763309  0.53380976  0.51709349    -0.44200
C2017       C  0.46091818  0.63974427  0.34729805    -0.00600
C2018       C  0.46969289  0.66259288  0.36528629    -0.12500
C2019       C  0.48229525  0.68792678  0.35229624     0.01600
C2020       C  0.48640494  0.69089763  0.32043499    -0.00700
C2021       C  0.47692545  0.66803441  0.30235598    -0.12500
C2022       C  0.46430729  0.64272720  0.31525830     0.01500
H2023       H  0.46702682  0.66075426  0.38976826     0.14500
H2024       H  0.47984377  0.66988449  0.27789947     0.14500
C2025       C  0.45508859  0.62040863  0.29469106     0.36100
C2026       C  0.98439778  0.70999992  0.36836104     0.36000
N2027       N  0.44774485  0.60259034  0.27815729    -0.44200
N2028       N  0.98835466  0.72785932  0.38360287    -0.44200
C2029       C  0.36069903  0.54090453  0.34136458    -0.00600
C2030       C  0.35935556  0.53493515  0.31017561    -0.12500
C2031       C  0.33524208  0.52296513  0.29471820     0.01600
C2032       C  0.31186784  0.51640171  0.31066420    -0.00700
C2033       C  0.31303924  0.52240519  0.34168799    -0.12500
C2034       C  0.33721936  0.53481343  0.35711144     0.01500
H2035       H  0.37722280  0.53948319  0.29783599     0.14500
H2036       H  0.29497093  0.51735589  0.35387542     0.14500
C2037       C  0.33705067  0.53995731  0.38923476     0.36100
C2038       C  0.33489425  0.51659098  0.26287523     0.36000
N2039       N  0.33668141  0.54403393  0.41496393    -0.44200
N2040       N  0.33674165  0.03374582  0.23419315    -0.44200
C2041       C  0.41904637  0.98008762  0.36148000    -0.00600
C2042       C  0.43585085  0.98016696  0.33842001    -0.12500
C2043       C  0.43863692  0.95799788  0.33334272     0.01600
C2044       C  0.42436306  0.93529495  0.35128852    -0.00700
C2045       C  0.40512461  0.93391141  0.37148993    -0.12500
C2046       C  0.40222302  0.95609075  0.37658558     0.01500
H2047       H  0.44817112  0.49808906  0.32635320     0.14500
H2048       H  0.39376651  0.91615103  0.38494040     0.14500
C2049       C  0.38224306  0.95383287  0.39762775     0.36100
C2050       C  0.45754729  0.95955168  0.31108918     0.36000
N2051       N  0.36590488  0.95183227  0.41412302    -0.44200
N2052       N  0.47247629  0.96073525  0.29296804    -0.44200
C2053       C  0.47861322  0.60698970  0.47900691    -0.00600
C2054       C  0.46896945  0.60464468  0.50865491    -0.12500
C2055       C  0.98681306  0.61272454  0.53386351     0.01600
C2056       C  0.01414191  0.62283548  0.52995674    -0.00700
C2057       C  0.02461026  0.62788420  0.50034709    -0.12500
C2058       C  0.50614074  0.62099799  0.47417363     0.01500
H2059       H  0.44797106  0.59449731  0.51254453     0.14500
H2060       H  0.04569067  0.63631388  0.49700612     0.14500
C2061       C  0.51680692  0.62673022  0.44371682     0.36100
C2062       C  0.97551832  0.61122557  0.56345193     0.36000
N2063       N  0.52511556  0.63162923  0.41921107    -0.44200
N2064       N  0.96611191  0.61074504  0.58677049    -0.44200
C2065       C  0.35907122  0.98689937  0.52467184    -0.00600
C2066       C  0.37140424  0.01454452  0.52865490    -0.12500
C2067       C  0.37739910  0.53023926  0.50429352     0.01600
C2068       C  0.37353033  0.51952900  0.47478579    -0.00700
C2069       C  0.35818577  0.99346748  0.47005686    -0.12500
C2070       C  0.34990541  0.97640243  0.49524623     0.01500
H2071       H  0.37729617  0.02296492  0.55121807     0.14500
H2072       H  0.35433904  0.98521720  0.44726414     0.14500
C2073       C  0.33481269  0.94821585  0.48975039     0.36100
C2074       C  0.38980998  0.55850467  0.50893043     0.36000
N2075       N  0.32263521  0.92560303  0.48542840    -0.44200
N2076       N  0.39907129  0.58112922  0.51244345    -0.44200
C2077       C  0.01344411  0.56921940  0.37741114    -0.00600
C2078       C  0.02704572  0.57395777  0.40497650    -0.12500
C2079       C  0.05023769  0.57288939  0.40704254     0.01600
C2080       C  0.06022989  0.56648813  0.38099715    -0.00700
C2081       C  0.04781666  0.56403201  0.35272254    -0.12500
C2082       C  0.02444118  0.56525258  0.35078067     0.01500
H2083       H  0.01860011  0.57701692  0.42554569     0.14500
H2084       H  0.05545212  0.55962266  0.33240627     0.14500
C2085       C  0.51074249  0.56123860  0.32300021     0.36100
C2086       C  0.06254793  0.57760438  0.43661142     0.36000
N2087       N  0.49975883  0.55649043  0.29993645    -0.44200
N2088       N  0.07198126  0.58130125  0.46053356    -0.44200
O2089       O  0.89360490  0.05309908  0.43626006    -0.82300
C2090       C  0.98628832  0.06449875  0.37957386     0.97100
O2091       O  0.97269274  0.04846609  0.40020725    -0.71400
O2092       O  0.96495696  0.07214059  0.44525364    -0.75000
Al2093     Al  0.94221275  0.04218881  0.42186709     1.49000
C2094       C  0.96239757  0.09106817  0.45506861     0.92300
O2095       O  0.94415184  0.11192915  0.39012084    -0.81200
O2096       O  0.90297103  0.04544979  0.34847762    -0.74800
Al2097     Al  0.92012708  0.08049822  0.41171517     1.90100
O2098       O  0.94586986  0.09407092  0.34747500    -0.73800
O2099       O  0.93362172  0.02473024  0.35551256    -0.73700
O2100       O  0.97637536  0.07433299  0.36195126    -0.79300
O2101       O  0.92045752  0.00941840  0.40121525    -0.77600
O2102       O  0.93371365  0.06090771  0.39706187    -1.13700
O2103       O  0.91416729  0.03201434  0.44929588    -0.72900
C2104       C  0.89514941  0.03607053  0.45220699     0.97800
C2105       C  0.94992519  0.11414124  0.36228193     0.94200
Al2106     Al  0.93910994  0.05980821  0.35698083     1.55600
O2107       O  0.94416787  0.09491588  0.44558269    -0.77500
C2108       C  0.92378961  0.00554578  0.37372859     0.98400
C2109       C  0.88742831  0.05289609  0.35845292     0.93300
O2110       O  0.89358049  0.06894151  0.38058983    -0.82800
O2111       O  0.60138090  0.14480161  0.56602108    -0.82300
C2112       C  0.51125784  0.08099008  0.63986089     0.97100
O2113       O  0.51885001  0.07435233  0.61628351    -0.71400
O2114       O  0.52293604  0.10487008  0.57011866    -0.75000
Al2115     Al  0.54581432  0.09398240  0.58705666     1.49000
C2116       C  0.53093430  0.12526205  0.55375580     0.92300
O2117       O  0.56037503  0.16773026  0.61176055    -0.81200
O2118       O  0.60036307  0.13906266  0.65040169    -0.74800
Al2119     Al  0.57979473  0.15464325  0.58986472     1.90100
O2120       O  0.56225348  0.15243534  0.65663715    -0.73800
O2121       O  0.56561356  0.08893450  0.65025559    -0.73700
O2122       O  0.52621528  0.10242732  0.65330442    -0.79300
O2123       O  0.56749938  0.08095521  0.60174781    -0.77600
O2124       O  0.56301434  0.12332546  0.60878008    -1.13700
O2125       O  0.56850249  0.10609448  0.55254515    -0.72900
C2126       C  0.59223997  0.12416408  0.54968929     0.97800
C2127       C  0.55755669  0.16740039  0.64037031     0.94200
Al2128     Al  0.56361885  0.12105162  0.64922157     1.55600
O2129       O  0.55409976  0.14484931  0.55706183    -0.77500
C2130       C  0.57150350  0.07792984  0.62924284     0.98400
C2131       C  0.61615288  0.16133739  0.63940117     0.93300
O2132       O  0.60889811  0.17099752  0.61825962    -0.82800
O2133       O  0.55912688  0.39921148  0.55345497    -0.82300
C2134       C  0.58480256  0.49095414  0.62468256     0.97100
O2135       O  0.57447399  0.48458141  0.59877104    -0.71400
O2136       O  0.60353343  0.47804845  0.55896710    -0.75000
Al2137     Al  0.56789718  0.45731559  0.57093324     1.49000
C2138       C  0.61592012  0.46871306  0.54499195     0.92300
O2139       O  0.61962244  0.43761976  0.60504329    -0.81200
O2140       O  0.54785528  0.40009843  0.63619853    -0.74800
Al2141     Al  0.58912911  0.41938051  0.58015755     1.90100
O2142       O  0.59994648  0.43750198  0.64772320    -0.73800
O2143       O  0.53547980  0.43698893  0.63041664    -0.73700
O2144       O  0.58784036  0.47476747  0.64057417    -0.79300
O2145       O  0.53190936  0.43847726  0.58089356    -0.77600
O2146       O  0.57514192  0.43799263  0.59570087    -1.13700
O2147       O  0.55904959  0.43449650  0.53657153    -0.72900
C2148       C  0.55169088  0.41019274  0.53406587     0.97800
C2149       C  0.62053491  0.44180345  0.63342641     0.94200
Al2150     Al  0.56837449  0.43724999  0.63539164     1.55600
O2151       O  0.60930721  0.44453256  0.54814629    -0.77500
C2152       C  0.52179131  0.43459968  0.60707913     0.98400
C2153       C  0.55444946  0.38370997  0.62734424     0.93300
O2154       O  0.57292496  0.39039796  0.60837741    -0.82800
O2155       O  0.65360353  0.10057757  0.43661417    -0.82300
C2156       C  0.59157269  0.00818191  0.36298750     0.97100
O2157       O  0.58861720  0.01290918  0.39003370    -0.71400
O2158       O  0.62519289  0.02271807  0.42974923    -0.75000
Al2159     Al  0.60728075  0.04075632  0.41763223     1.49000
C2160       C  0.64651702  0.03377897  0.44449477     0.92300
O2161       O  0.68008489  0.06637320  0.38333056    -0.81200
O2162       O  0.64364839  0.10058233  0.35164058    -0.74800
Al2163     Al  0.66562078  0.08252324  0.40901936     1.90100
O2164       O  0.65834709  0.06301673  0.34108285    -0.73800
O2165       O  0.59484484  0.06380999  0.35910684    -0.73700
O2166       O  0.60902700  0.02592555  0.34664714    -0.79300
O2167       O  0.58677908  0.05636168  0.40798387    -0.77600
O2168       O  0.63327076  0.06223686  0.39303340    -1.13700
O2169       O  0.61925617  0.06361950  0.45172351    -0.72900
C2170       C  0.63519286  0.08795977  0.45570185     0.97800
C2171       C  0.67628314  0.06117156  0.35508168     0.94200
Al2172     Al  0.62713933  0.06333051  0.35325218     1.55600
O2173       O  0.66264417  0.05819254  0.44085514    -0.77500
C2174       C  0.58201169  0.06315117  0.38262492     0.98400
C2175       C  0.66618804  0.11744676  0.36083044     0.93300
O2176       O  0.67709695  0.11164206  0.38170248    -0.82800
O2177       O  0.95695027  0.35033868  0.43145775    -0.82300
C2178       C  0.93578027  0.41681482  0.35774492     0.97100
O2179       O  0.95478165  0.42461885  0.37610697    -0.71400
O2180       O  0.93059137  0.39974675  0.42494231    -0.75000
Al2181     Al  0.96088434  0.40432333  0.40560350     1.49000
C2182       C  0.91434557  0.38057590  0.44094676     0.92300
O2183       O  0.89341805  0.33260633  0.38712215    -0.81200
O2184       O  0.95872437  0.35242765  0.34381914    -0.74800
Al2185     Al  0.92624080  0.34355681  0.40780746     1.90100
O2186       O  0.90890310  0.34366646  0.34099004    -0.73800
O2187       O  0.97831049  0.40410346  0.34082150    -0.73700
O2188       O  0.92631382  0.39454029  0.34492371    -0.79300
O2189       O  0.99307733  0.41135402  0.38767684    -0.77600
O2190       O  0.94332979  0.37353960  0.38659144    -1.13700
O2191       O  0.97101060  0.39223095  0.43985993    -0.72900
C2192       C  0.97238803  0.37176044  0.44490172     0.97800
C2193       C  0.88961917  0.33170235  0.35874991     0.94200
Al2194     Al  0.94307728  0.37359948  0.34596962     1.55600
O2195       O  0.91322852  0.35823063  0.43906684    -0.77500
C2196       C  0.99736069  0.41441093  0.35948684     0.98400
C2197       C  0.95154829  0.33089997  0.35754364     0.93300
O2198       O  0.93627923  0.32395867  0.38046647    -0.82800
O2199       O  0.84712718  0.44596403  0.55361700    -0.82300
C2200       C  0.92596830  0.43782819  0.61043928     0.97100
O2201       O  0.92200307  0.44667449  0.58610637    -0.71400
O2202       O  0.88998688  0.44079188  0.54257454    -0.75000
Al2203     Al  0.90159040  0.46249127  0.57788104     1.49000
C2204       C  0.87388232  0.41655321  0.53771310     0.92300
O2205       O  0.83048913  0.39004320  0.61053238    -0.81200
O2206       O  0.84931061  0.43702364  0.65338449    -0.74800
Al2207     Al  0.84330484  0.42039015  0.58440743     1.90100
O2208       O  0.86372702  0.39926437  0.63999760    -0.73800
O2209       O  0.89923128  0.47334737  0.65020577    -0.73700
O2210       O  0.91271568  0.43559630  0.63420327    -0.79300
O2211       O  0.91958776  0.48900837  0.60721831    -0.77600
O2212       O  0.87532610  0.43977772  0.60135088    -1.13700
O2213       O  0.88382329  0.48111989  0.56706459    -0.72900
C2214       C  0.86320594  0.47053138  0.55105603     0.97800
C2215       C  0.84113426  0.38297423  0.63045300     0.94200
Al2216     Al  0.88064066  0.43648837  0.64088627     1.55600
O2217       O  0.85545581  0.40326248  0.55647976    -0.77500
C2218       C  0.91651339  0.49208653  0.63481990     0.98400
C2219       C  0.83288257  0.44070426  0.63834377     0.93300
O2220       O  0.82952566  0.43612272  0.61009219    -0.82800
O2221       O  0.77993463  0.99596764  0.22216489    -0.82300
C2222       C  0.68553636  0.42089256  0.28176851     0.97100
O2223       O  0.69616090  0.42009631  0.25730558    -0.71400
O2224       O  0.70200751  0.45568981  0.21766997    -0.75000
Al2225     Al  0.72440478  0.44403534  0.23329370     1.49000
C2226       C  0.70989261  0.47813474  0.20589513     0.92300
O2227       O  0.73492202  0.01472589  0.26652573    -0.81200
O2228       O  0.77076600  0.48298890  0.30720201    -0.74800
Al2229     Al  0.75598181  0.00349491  0.24480688     1.90100
O2230       O  0.72933117  0.49204285  0.31050365    -0.73800
O2231       O  0.73888310  0.43266357  0.29646194    -0.73700
O2232       O  0.69641260  0.44127147  0.29838373    -0.79300
O2233       O  0.74550685  0.43013816  0.24762101    -0.77600
O2234       O  0.73816506  0.47039697  0.25995447    -1.13700
O2235       O  0.74957648  0.46074328  0.20154366    -0.72900
C2236       C  0.77334078  0.47867697  0.20344364     0.97800
C2237       C  0.72786140  0.01050849  0.29414652     0.94200
Al2238     Al  0.73432390  0.46313468  0.29977530     1.55600
O2239       O  0.73273347  0.49741444  0.21155642    -0.77500
C2240       C  0.74533242  0.42271572  0.27471665     0.98400
C2241       C  0.78697221  0.00529155  0.29756427     0.93300
O2242       O  0.78205904  0.01632691  0.27596628    -0.82800
O2243       O  0.56932977  0.38525606  0.10608929    -0.82300
C2244       C  0.65960324  0.40827021  0.03426981     0.97100
O2245       O  0.65229459  0.39714649  0.05953788    -0.71400
O2246       O  0.64791505  0.42864454  0.09846241    -0.75000
Al2247     Al  0.62584800  0.39286292  0.08709242     1.49000
C2248       C  0.63942954  0.44194315  0.11226845     0.92300
O2249       O  0.60641719  0.44622455  0.05408209    -0.81200
O2250       O  0.56998977  0.37824942  0.01865316    -0.74800
Al2251     Al  0.58912317  0.41548498  0.07912427     1.90100
O2252       O  0.61087648  0.42893546  0.01143260    -0.73800
O2253       O  0.60254987  0.36033162  0.02753817    -0.73700
O2254       O  0.64422191  0.41220982  0.01822222    -0.79300
O2255       O  0.60522980  0.35700861  0.07718248    -0.77600
O2256       O  0.60714902  0.40128461  0.06250823    -1.13700
O2257       O  0.60463498  0.38563249  0.12253332    -0.72900
C2258       C  0.58042903  0.37781812  0.12528449     0.97800
C2259       C  0.61281490  0.44853127  0.02623726     0.94200
Al2260     Al  0.60684118  0.39539716  0.02245161     1.55600
O2261       O  0.61537967  0.43580056  0.11004249    -0.77500
C2262       C  0.59958179  0.34645794  0.05107379     0.98400
C2263       C  0.55369231  0.38392653  0.02986782     0.93300
O2264       O  0.55974381  0.39939354  0.05224448    -0.82800
O2265       O  0.52084804  0.28343053  0.23081924    -0.82300
C2266       C  0.58629133  0.25645040  0.30047674     0.97100
O2267       O  0.59056419  0.26722131  0.27478003    -0.71400
O2268       O  0.55701231  0.24086018  0.23234574    -0.75000
Al2269     Al  0.57101287  0.27564967  0.24724391     1.49000
C2270       C  0.53590560  0.22871981  0.21747029     0.92300
O2271       O  0.99739869  0.21824517  0.27377147    -0.81200
O2272       O  0.52964848  0.29040347  0.31321103    -0.74800
Al2273     Al  0.00804208  0.24970092  0.25092472     1.90100
O2274       O  0.51639597  0.23814677  0.32092580    -0.73800
O2275       O  0.57989395  0.30494614  0.30929478    -0.73700
O2276       O  0.56663425  0.25262410  0.31602431    -0.79300
O2277       O  0.58815536  0.31109819  0.26020620    -0.77600
O2278       O  0.54347645  0.26643297  0.27118587    -1.13700
O2279       O  0.55786591  0.28699783  0.21381196    -0.72900
C2280       C  0.54066427  0.29415244  0.21327981     0.97800
C2281       C  0.99971748  0.21689857  0.30230441     0.94200
Al2282     Al  0.54763703  0.27116288  0.31143271     1.55600
O2283       O  0.51817740  0.23495224  0.22029288    -0.77500
C2284       C  0.59311420  0.31940374  0.28720969     0.98400
C2285       C  0.00290436  0.28012367  0.30074985     0.93300
O2286       O  0.99287488  0.26241791  0.28054086    -0.82800
O2287       O  0.61688718  0.16854723  0.10191471    -0.82300
C2288       C  0.59736118  0.24788865  0.05306415     0.97100
O2289       O  0.61375233  0.25053741  0.07328948    -0.71400
O2290       O  0.58908739  0.21556731  0.11476213    -0.75000
Al2291     Al  0.62069181  0.22607912  0.09368519     1.49000
C2292       C  0.57196551  0.19294757  0.12390875     0.92300
O2293       O  0.55529244  0.15807391  0.05920922    -0.81200
O2294       O  0.62252995  0.18887044  0.01734932    -0.74800
Al2295     Al  0.58740269  0.16600222  0.07932380     1.90100
O2296       O  0.57178736  0.17912521  0.01666271    -0.73800
O2297       O  0.63992184  0.23915518  0.02856915    -0.73700
O2298       O  0.58867565  0.22870441  0.03448723    -0.79300
O2299       O  0.65443970  0.23976886  0.07458696    -0.77600
O2300       O  0.60454885  0.19988541  0.06694173    -1.13700
O2301       O  0.63114779  0.20811082  0.12089682    -0.72900
C2302       C  0.63099888  0.18649833  0.12068178     0.97800
C2303       C  0.55232712  0.16239834  0.03185776     0.94200
Al2304     Al  0.60558693  0.20807275  0.02759771     1.55600
O2305       O  0.57201005  0.17228423  0.11505346    -0.77500
C2306       C  0.65861979  0.24830479  0.04759620     0.98400
C2307       C  0.61634156  0.16562531  0.02509593     0.93300
O2308       O  0.59951880  0.15351088  0.04586173    -0.82800
O2309       O  0.82807150  0.43917241  0.09817167    -0.82300
C2310       C  0.75031764  0.34901752  0.03319230     0.97100
O2311       O  0.74625125  0.36216414  0.05314040    -0.71400
O2312       O  0.77548827  0.36490080  0.09861029    -0.75000
Al2313     Al  0.77058953  0.39028111  0.07903653     1.49000
C2314       C  0.79571522  0.36642376  0.11078166     0.92300
O2315       O  0.83884977  0.38958406  0.05181623    -0.81200
O2316       O  0.81765119  0.43305860  0.00930246    -0.74800
Al2317     Al  0.83073029  0.41300259  0.07346584     1.90100
O2318       O  0.82209813  0.38918796  0.00744251    -0.73800
O2319       O  0.76573787  0.40427210  0.01391382    -0.73700
O2320       O  0.77140992  0.35948542  0.01801110    -0.79300
O2321       O  0.76337510  0.41525405  0.06101187    -0.77600
O2322       O  0.79898797  0.40026388  0.05610329    -1.13700
O2323       O  0.78681679  0.41487230  0.11119901    -0.72900
C2324       C  0.80890769  0.43527407  0.11482834     0.97800
C2325       C  0.83647454  0.38395349  0.02388459     0.94200
Al2326     Al  0.79470112  0.39689890  0.01563486     1.55600
O2327       O  0.81836985  0.38653342  0.10609447    -0.77500
C2328       C  0.75727677  0.41435442  0.03338660     0.98400
C2329       C  0.84025125  0.44765730  0.02056548     0.93300
O2330       O  0.84817185  0.44080583  0.04387082    -0.82800
O2331       O  0.72528348  0.23270340  0.21846151    -0.82300
C2332       C  0.73849798  0.32153419  0.27919549     0.97100
O2333       O  0.73146049  0.31039118  0.25362071    -0.71400
O2334       O  0.73622092  0.28391110  0.20964378    -0.75000
Al2335     Al  0.71312967  0.27439462  0.24329556     1.49000
C2336       C  0.75970704  0.28920594  0.20514982     0.92300
O2337       O  0.77950248  0.26666462  0.27920359    -0.81200
O2338       O  0.73188510  0.24105441  0.31880188    -0.74800
Al2339     Al  0.75029970  0.25193584  0.25096331     1.90100
O2340       O  0.77186356  0.29246491  0.30827867    -0.73800
O2341       O  0.69769269  0.25698846  0.31395660    -0.73700
O2342       O  0.73768699  0.30850471  0.30259646    -0.79300
O2343       O  0.68585297  0.26716584  0.27138263    -0.77600
O2344       O  0.73282094  0.26704318  0.26738064    -1.13700
O2345       O  0.69229439  0.23867420  0.23009250    -0.72900
C2346       C  0.70139134  0.22652536  0.21510511     0.97800
C2347       C  0.78700997  0.28433512  0.29951792     0.94200
Al2348     Al  0.73474456  0.27413544  0.30733494     1.55600
O2349       O  0.77096838  0.28163674  0.22405624    -0.77500
C2350       C  0.68071312  0.25851664  0.29808914     0.98400
C2351       C  0.72600007  0.22031902  0.30353835     0.93300
O2352       O  0.73081922  0.22145384  0.27533298    -0.82800
O2353       O  0.89029313  0.06509809  0.89151157    -0.82300
C2354       C  0.90576317  0.15082234  0.96703977     0.97100
O2355       O  0.89307904  0.14379833  0.94228965    -0.71400
O2356       O  0.92318842  0.14304034  0.89998536    -0.75000
Al2357     Al  0.88941191  0.11820949  0.91199505     1.49000
C2358       C  0.93776011  0.13822738  0.88349848     0.92300
O2359       O  0.94948025  0.10916261  0.94187592    -0.81200
O2360       O  0.87775735  0.06173546  0.97267237    -0.74800
Al2361     Al  0.91940222  0.08798597  0.91725216     1.90100
O2362       O  0.92817429  0.10181170  0.98526818    -0.73800
O2363       O  0.85966504  0.09499252  0.97151056    -0.73700
O2364       O  0.91154197  0.13560945  0.98089095    -0.79300
O2365       O  0.85470430  0.09483075  0.92230047    -0.77600
O2366       O  0.90124158  0.10159263  0.93465725    -1.13700
O2367       O  0.88267838  0.09644632  0.87609135    -0.72900
C2368       C  0.87877916  0.07309248  0.87375899     0.97800
C2369       C  0.94961466  0.11023799  0.97067642     0.94200
Al2370     Al  0.89478001  0.09862909  0.97437902     1.55600
O2371       O  0.93604114  0.11554959  0.88517468    -0.77500
C2372       C  0.84499590  0.09090766  0.94847445     0.98400
C2373       C  0.88866056  0.04878274  0.96462339     0.93300
O2374       O  0.90713772  0.05808996  0.94509688    -0.82800
O2375       O  0.49906211  0.27903322  0.76573283    -0.82300
C2376       C  0.92311934  0.17826394  0.70794183     0.97100
O2377       O  0.91946267  0.19042328  0.72942779    -0.71400
O2378       O  0.95448750  0.19972295  0.77059155    -0.75000
Al2379     Al  0.94265029  0.22095860  0.75227588     1.49000
C2380       C  0.97663582  0.20784436  0.78287114     0.92300
O2381       O  0.51347520  0.23045965  0.72342814    -0.81200
O2382       O  0.97971894  0.26505958  0.67813757    -0.74800
Al2383     Al  0.50405199  0.25334739  0.74351076     1.90100
O2384       O  0.99191520  0.22550887  0.67548075    -0.73800
O2385       O  0.93003738  0.23068500  0.68803667    -0.73700
O2386       O  0.94238855  0.19045435  0.69000654    -0.79300
O2387       O  0.92822243  0.24091144  0.73565487    -0.77600
O2388       O  0.96905423  0.23393748  0.72602618    -1.13700
O2389       O  0.95915263  0.24800027  0.78240479    -0.72900
C2390       C  0.97941288  0.27067316  0.78285605     0.97800
C2391       C  0.50988711  0.22377667  0.69577054     0.94200
Al2392     Al  0.96177582  0.22850257  0.68623427     1.55600
O2393       O  0.49782500  0.23163244  0.77988221    -0.77500
C2394       C  0.92052613  0.23887807  0.70844698     0.98400
C2395       C  0.50470632  0.28277111  0.68892698     0.93300
O2396       O  0.51659294  0.27829024  0.71018892    -0.82800
O2397       O  0.94209707  0.32003411  0.89381264    -0.82300
C2398       C  0.85253089  0.24684557  0.95997843     0.97100
O2399       O  0.86568376  0.24067242  0.94205830    -0.71400
O2400       O  0.87458043  0.26538721  0.89112653    -0.75000
Al2401     Al  0.89702978  0.26218056  0.91837776     1.49000
C2402       C  0.87421801  0.28458633  0.87859862     0.92300
O2403       O  0.89224527  0.33104546  0.93868967    -0.81200
O2404       O  0.93690996  0.31153454  0.98423616    -0.74800
Al2405     Al  0.91634368  0.32257637  0.91861627     1.90100
O2406       O  0.89577405  0.31936935  0.98426547    -0.73800
O2407       O  0.90422941  0.25918643  0.98617011    -0.73700
O2408       O  0.86337792  0.26836707  0.97476809    -0.79300
O2409       O  0.91956972  0.25534378  0.94277108    -0.77600
O2410       O  0.90476504  0.29176255  0.93805156    -1.13700
O2411       O  0.92538530  0.27718617  0.89072179    -0.72900
C2412       C  0.94232867  0.30016396  0.88276232     0.97800
C2413       C  0.88863351  0.33155028  0.96682208     0.94200
Al2414     Al  0.90058016  0.28992997  0.97863143     1.55600
O2415       O  0.89040685  0.30816374  0.88652106    -0.77500
C2416       C  0.91511904  0.24930787  0.97031928     0.98400
C2417       C  0.95167368  0.33359557  0.97149226     0.93300
O2418       O  0.94440829  0.34126389  0.94810743    -0.82800
O2419       O  0.67808739  0.11624893  0.89208952    -0.82300
C2420       C  0.74946239  0.09258581  0.95294607     0.97100
O2421       O  0.75431702  0.10918133  0.93209730    -0.71400
O2422       O  0.72198619  0.08274024  0.88848911    -0.75000
Al2423     Al  0.73209939  0.11566370  0.90684040     1.49000
C2424       C  0.70016544  0.06745513  0.87595338     0.92300
O2425       O  0.66133240  0.05290657  0.93624685    -0.81200
O2426       O  0.69063456  0.12093985  0.97732954    -0.80200
Al2427     Al  0.67177922  0.08542880  0.91531523     1.90100
O2428       O  0.67932060  0.06949501  0.98039574    -0.73800
O2429       O  0.74104340  0.13730410  0.97113602    -0.73700
O2430       O  0.72926714  0.08478387  0.96946371    -0.79300
O2431       O  0.74494044  0.15003223  0.92360926    -0.77600
O2432       O  0.70426790  0.10131567  0.93118103    -1.13700
O2433       O  0.71704366  0.12582510  0.87518089    -0.72900
C2434       C  0.69726673  0.12889748  0.87415356     0.97800
C2435       C  0.66380257  0.04988865  0.96425449     0.94200
Al2436     Al  0.70946515  0.10299100  0.97132522     1.55600
O2437       O  0.68002584  0.06971961  0.88105398    -0.77500
C2438       C  0.75179339  0.15521157  0.95114567     0.98400
C2439       C  0.66781872  0.11430669  0.96780889     0.93300
O2440       O  0.65722823  0.09770443  0.94639177    -0.82800
O2441       O  0.78777607  0.51242553  0.76712703    -0.82300
C2442       C  0.76291645  0.07890506  0.69827820     0.97100
O2443       O  0.77537516  0.08389566  0.72299808    -0.71400
O2444       O  0.74845583  0.05139638  0.76645756    -0.75000
Al2445     Al  0.78250993  0.06314427  0.75056517     1.49000
C2446       C  0.73540870  0.03027443  0.78123909     0.92300
O2447       O  0.72523044  0.49271922  0.72115304    -0.81200
O2448       O  0.79341704  0.01998980  0.68474675    -0.74800
Al2449     Al  0.75692808  0.50397898  0.74340370     1.90100
O2450       O  0.74176936  0.00823218  0.67756510    -0.73800
O2451       O  0.81009405  0.07065121  0.68781879    -0.73700
O2452       O  0.75785244  0.05869284  0.68295556    -0.79300
O2453       O  0.81728091  0.07748338  0.73676825    -0.77600
O2454       O  0.77119211  0.03497925  0.72686797    -1.13700
O2455       O  0.79288444  0.04918810  0.78412350    -0.72900
C2456       C  0.79825813  0.03069450  0.78498513     0.97800
C2457       C  0.72326911  0.49413796  0.69264230     0.94200
Al2458     Al  0.77538802  0.03891412  0.68665360     1.55600
O2459       O  0.74040825  0.51249286  0.77674493    -0.77500
C2460       C  0.82575350  0.08210066  0.70980580     0.98400
C2461       C  0.78666046  0.49779942  0.69364667     0.93300
O2462       O  0.76941068  0.48799951  0.71432331    -0.82800
O2463       O  0.73159532  0.21604862  0.76139660    -0.82300
C2464       C  0.82042085  0.22950360  0.69497484     0.97100
O2465       O  0.80762242  0.21110132  0.71386664    -0.71400
O2466       O  0.80532218  0.23512163  0.76203331    -0.75000
Al2467     Al  0.77961101  0.20602957  0.74068799     1.49000
C2468       C  0.80180394  0.25120956  0.77760638     0.92300
O2469       O  0.78350854  0.27651363  0.71698014    -0.81200
O2470       O  0.73584941  0.20982070  0.67534226    -0.74800
Al2471     Al  0.75834930  0.24488384  0.73761941     1.90100
O2472       O  0.77776810  0.25938923  0.67145394    -0.73800
O2473       O  0.76657020  0.18893449  0.67534643    -0.73700
O2474       O  0.80940986  0.23982991  0.68010917    -0.79300
O2475       O  0.75430586  0.17465787  0.72163541    -0.77600
O2476       O  0.76999760  0.22535233  0.71932341    -1.13700
O2477       O  0.75470779  0.19710779  0.77254632    -0.72900
C2478       C  0.73517993  0.20012605  0.77735912     0.97800
C2479       C  0.78644519  0.27940231  0.68852388     0.94200
Al2480     Al  0.77212161  0.22462972  0.67878000     1.55600
O2481       O  0.78336883  0.25599773  0.77139985    -0.77500
C2482       C  0.75603050  0.16999017  0.69409068     0.98400
C2483       C  0.72183098  0.21838871  0.68701964     0.93300
O2484       O  0.73072794  0.23630081  0.70749199    -0.82800
C2485       C  0.75444017  0.09739072  0.68802021    -0.00600
C2486       C  0.73495910  0.09876153  0.70498997    -0.12500
C2487       C  0.73194345  0.12100133  0.70336070     0.01600
C2488       C  0.74965982  0.14291697  0.68559784    -0.00700
C2489       C  0.76669314  0.13999045  0.66544016    -0.12500
C2490       C  0.76913631  0.11726917  0.66651128     0.01500
H2491       H  0.72341441  0.08329633  0.72123710     0.14500
H2492       H  0.78012247  0.15649787  0.65126328     0.14500
C2493       C  0.78859289  0.11603774  0.64750379     0.36100
C2494       C  0.71152410  0.12137260  0.72144359     0.36000
N2495       N  0.80411545  0.11526751  0.63186115    -0.44200
N2496       N  0.69474256  0.12107527  0.73571119    -0.44200
C2497       C  0.69810377  0.14816952  0.85160973    -0.00600
C2498       C  0.71576907  0.17516244  0.85712072    -0.12500
C2499       C  0.72541242  0.19352720  0.83317303     0.01600
C2500       C  0.71755845  0.18496327  0.80295941    -0.00700
C2501       C  0.69778309  0.15857819  0.79792145    -0.12500
C2502       C  0.68814434  0.14012144  0.82189729     0.01500
H2503       H  0.72380843  0.18152026  0.87981285     0.14500
H2504       H  0.69147297  0.15192939  0.77482820     0.14500
C2505       C  0.67007804  0.11258976  0.81506680     0.36100
C2506       C  0.74501463  0.22066391  0.83982455     0.36000
N2507       N  0.65556368  0.09050502  0.80964046    -0.44200
N2508       N  0.76061837  0.24241876  0.84531300    -0.44200
C2509       C  0.71727106  0.02970071  0.80500624    -0.00600
C2510       C  0.72146779  0.02480943  0.83511388    -0.12500
C2511       C  0.71236208  0.03378660  0.85933721     0.01600
C2512       C  0.69955283  0.04840115  0.85336129    -0.00700
C2513       C  0.69172324  0.04946411  0.82354921    -0.12500
C2514       C  0.70027739  0.03991028  0.79935261     0.01500
H2515       H  0.73375433  0.01611726  0.83973799     0.14500
H2516       H  0.68093551  0.05973980  0.81887266     0.14500
C2517       C  0.69188424  0.04120618  0.76887496     0.36100
C2518       C  0.71710996  0.02871821  0.89015985     0.36000
N2519       N  0.68449591  0.04157164  0.74457478    -0.44200
N2520       N  0.72041930  0.02434092  0.91492912    -0.44200
C2521       C  0.82432747  0.22777916  0.96377469    -0.00600
C2522       C  0.81710788  0.20716791  0.98442006    -0.12500
C2523       C  0.79229698  0.18433745  0.98285125     0.01600
C2524       C  0.77455891  0.18149016  0.95924874    -0.00700
C2525       C  0.78095194  0.20339933  0.94042807    -0.12500
C2526       C  0.80547547  0.22671860  0.94307328     0.01500
H2527       H  0.83146210  0.20825384  0.00069883     0.14500
H2528       H  0.76719704  0.20198926  0.92298194     0.14500
C2529       C  0.81096170  0.24925402  0.92443009     0.36100
C2530       C  0.78671860  0.16363745  0.00449430     0.36000
N2531       N  0.81499646  0.26755656  0.91013430    -0.44200
N2532       N  0.78247064  0.14740095  0.02228787    -0.44200
C2533       C  0.85430339  0.27815824  0.85413328    -0.00600
C2534       C  0.83499401  0.25133354  0.85058989    -0.12500
C2535       C  0.81713052  0.24277696  0.82669171     0.01600
C2536       C  0.81772319  0.26121335  0.80550908    -0.00700
C2537       C  0.83591840  0.28825350  0.80955782    -0.12500
C2538       C  0.85437608  0.29687420  0.83355475     0.01500
H2539       H  0.83402683  0.23652842  0.86629566     0.14500
H2540       H  0.83651257  0.30243636  0.79329834     0.14500
C2541       C  0.87371594  0.32468437  0.83557784     0.36100
C2542       C  0.79875442  0.21460920  0.82434899     0.36000
N2543       N  0.88926386  0.34699781  0.83718947    -0.44200
N2544       N  0.78436950  0.19197358  0.82308651    -0.44200
C2545       C  0.85408741  0.10245068  0.70523288    -0.00600
C2546       C  0.87002872  0.11112931  0.73129948    -0.12500
C2547       C  0.89465477  0.13389940  0.73107955     0.01600
C2548       C  0.90359998  0.14972438  0.70474837    -0.00700
C2549       C  0.88952526  0.13954712  0.67745949    -0.12500
C2550       C  0.86516304  0.11549355  0.67735789     0.01500
H2551       H  0.86276254  0.10082953  0.75272598     0.14500
H2552       H  0.89669085  0.15102287  0.65672732     0.14500
C2553       C  0.85222040  0.10482531  0.64866119     0.36100
C2554       C  0.90958190  0.14086622  0.75899555     0.36000
N2555       N  0.84232673  0.09594086  0.62548491    -0.44200
N2556       N  0.92061598  0.14510908  0.78194917    -0.44200
C2557       C  0.89835765  0.24344456  0.70085603    -0.00600
C2558       C  0.88374370  0.23200945  0.67404264    -0.12500
C2559       C  0.85894908  0.22976978  0.66971764     0.01600
C2560       C  0.84871711  0.23923564  0.69228418    -0.00700
C2561       C  0.86441651  0.25331850  0.71711969    -0.12500
C2562       C  0.88914001  0.25570548  0.72152936     0.01500
H2563       H  0.89067017  0.22300947  0.65749564     0.14500
H2564       H  0.85650397  0.26088800  0.73431167     0.14500
C2565       C  0.90366153  0.26964214  0.74835783     0.36100
C2566       C  0.84349324  0.21602251  0.64326286     0.36000
N2567       N  0.91483543  0.28082083  0.77009573    -0.44200
N2568       N  0.83103859  0.20515713  0.62203233    -0.44200
C2569       C  0.96132094  0.30274737  0.85872208    -0.00600
C2570       C  0.97591070  0.28980011  0.86278282    -0.12500
C2571       C  0.98672095  0.28352743  0.83774730     0.01600
C2572       C  0.98155948  0.28867677  0.80797972    -0.00700
C2573       C  0.97012936  0.30469619  0.80422076    -0.12500
C2574       C  0.96037146  0.31214314  0.82942407     0.01500
H2575       H  0.97753366  0.28320873  0.88532694     0.14500
H2576       H  0.96679167  0.30945771  0.78142027     0.14500
C2577       C  0.94716241  0.32710135  0.82424262     0.36100
C2578       C  0.00230052  0.27098357  0.84292252     0.36000
N2579       N  0.93681983  0.33932354  0.81995347    -0.44200
N2580       N  0.51639907  0.26237838  0.84911319    -0.44200
C2581       C  0.81679235  0.08367270  0.95132033    -0.00600
C2582       C  0.80641357  0.08470607  0.97997376    -0.12500
C2583       C  0.78223892  0.08447358  0.98222839     0.01600
C2584       C  0.76806444  0.08258926  0.95557242    -0.00700
C2585       C  0.77660254  0.07783535  0.92781931    -0.12500
C2586       C  0.80086056  0.07920174  0.92507752     0.01500
H2587       H  0.81803682  0.08775662  0.00034026     0.14500
H2588       H  0.76562403  0.07626261  0.90726111     0.14500
C2589       C  0.80967343  0.07959771  0.89421494     0.36100
C2590       C  0.77344660  0.08802893  0.01160631     0.36000
N2591       N  0.81646923  0.08077333  0.86924410    -0.44200
N2592       N  0.76639181  0.09060894  0.03532395    -0.44200
C2593       C  0.81895017  0.03345787  0.80654921    -0.00600
C2594       C  0.81274072  0.02792972  0.83747595    -0.12500
C2595       C  0.83279475  0.03784252  0.85962850     0.01600
C2596       C  0.85927154  0.05512064  0.85103730    -0.00700
C2597       C  0.86565535  0.05874989  0.81997849    -0.12500
C2598       C  0.84574758  0.04716207  0.79776638     0.01500
H2599       H  0.79220119  0.01710228  0.84445271     0.14500
H2600       H  0.88603303  0.07140732  0.81309916     0.14500
C2601       C  0.85304656  0.04999622  0.76604909     0.36100
C2602       C  0.82560990  0.03174963  0.89124342     0.36000
N2603       N  0.85874980  0.05165043  0.74059899    -0.44200
N2604       N  0.81994064  0.02677344  0.91658266    -0.44200
C2605       C  0.91940155  0.22788608  0.98189782    -0.00600
C2606       C  0.93925151  0.22439448  0.96828377    -0.12500
C2607       C  0.93719878  0.19939548  0.96783538     0.01600
C2608       C  0.91413891  0.17742070  0.97896811    -0.00700
C2609       C  0.89658611  0.18152564  0.99672753    -0.12500
C2610       C  0.89989362  0.20700231  0.99953325     0.01500
H2611       H  0.95522357  0.24064389  0.95602738     0.14500
H2612       H  0.87957883  0.16471810  0.00693037     0.14500
C2613       C  0.88243717  0.21085927  0.01941613     0.36100
C2614       C  0.95788999  0.19620359  0.95402826     0.36000
N2615       N  0.86904454  0.21409322  0.03623076    -0.44200
N2616       N  0.97441043  0.19343693  0.94316388    -0.44200
C2617       C  0.95469512  0.15897803  0.86076569    -0.00600
C2618       C  0.96630130  0.15272621  0.83627620    -0.12500
C2619       C  0.97662840  0.16978756  0.81092699     0.01600
C2620       C  0.97678827  0.19409134  0.81078296    -0.00700
C2621       C  0.96773927  0.20136042  0.83621974    -0.12500
C2622       C  0.95601218  0.18413174  0.86040647     0.01500
H2623       H  0.96515254  0.13356057  0.83558921     0.14500
H2624       H  0.96621060  0.21916568  0.83521403     0.14500
C2625       C  0.94197928  0.19187780  0.88135314     0.36100
C2626       C  0.98441091  0.16090497  0.78423581     0.36000
N2627       N  0.93013475  0.19837633  0.89674600    -0.44200
N2628       N  0.99041203  0.15363120  0.76275348    -0.44200
C2629       C  0.85721789  0.47352248  0.00634637    -0.00600
C2630       C  0.86765397  0.49620234  0.02465063    -0.12500
C2631       C  0.87471840  0.02010481  0.01130151     0.01600
C2632       C  0.88004501  0.02309725  0.97964162    -0.00700
C2633       C  0.87503692  0.00086041  0.96221734    -0.12500
C2634       C  0.86040655  0.47615269  0.97443366     0.01500
H2635       H  0.86529906  0.49422053  0.04916513     0.14500
H2636       H  0.87924309  0.00301834  0.93802521     0.14500
C2637       C  0.85085125  0.45324460  0.95480655     0.36100
C2638       C  0.87992613  0.04228257  0.03070859     0.36000
N2639       N  0.84315357  0.43485122  0.93913034    -0.44200
N2640       N  0.88381745  0.05991422  0.04632325    -0.44200
C2641       C  0.85054392  0.37112642  0.00973557    -0.00600
C2642       C  0.85391422  0.37226668  0.97789406    -0.12500
C2643       C  0.86635447  0.35993911  0.96322392     0.01600
C2644       C  0.87587525  0.34598153  0.98047273    -0.00700
C2645       C  0.87261484  0.34507506  0.01234226    -0.12500
C2646       C  0.86012502  0.35725487  0.02694284     0.01500
H2647       H  0.84676462  0.38286980  0.96424238     0.14500
H2648       H  0.87954763  0.33440799  0.02620651     0.14500
C2649       C  0.85658319  0.35414179  0.05950537     0.36100
C2650       C  0.86878041  0.36189984  0.93051847     0.36000
N2651       N  0.85370449  0.35153353  0.08557474    -0.44200
N2652       N  0.87066149  0.36352689  0.90429635    -0.44200
C2653       C  0.79110567  0.34396166  0.13115713    -0.00600
C2654       C  0.76606339  0.32118473  0.12921912    -0.12500
C2655       C  0.75665905  0.30190969  0.15161561     0.01600
C2656       C  0.77264168  0.30445562  0.17700569    -0.00700
C2657       C  0.79924233  0.32504572  0.17685073    -0.12500
C2658       C  0.80857643  0.34491460  0.15408729     0.01500
H2659       H  0.75254870  0.31925823  0.11125111     0.14500
H2660       H  0.81194174  0.32702529  0.19582159     0.14500
C2661       C  0.83541076  0.36656940  0.15576320     0.36100
C2662       C  0.72923397  0.28139160  0.14928633     0.36000
N2663       N  0.85699940  0.38387752  0.15686712    -0.44200
N2664       N  0.70704566  0.26564921  0.14772221    -0.44200
C2665       C  0.52582359  0.14808114  0.01727555    -0.00600
C2666       C  0.50357833  0.14425057  0.03369678    -0.12500
C2667       C  0.97801293  0.13012738  0.01820323     0.01600
C2668       C  0.97515760  0.12148114  0.98747345    -0.00700
C2669       C  0.49735204  0.12712850  0.97329169    -0.12500
C2670       C  0.52247604  0.13924981  0.98676659     0.01500
H2671       H  0.50599202  0.15132142  0.05697568     0.14500
H2672       H  0.49527620  0.12039376  0.94990253     0.14500
C2673       C  0.54440523  0.14180699  0.96891275     0.36100
C2674       C  0.95625835  0.12842508  0.03564684     0.36000
N2675       N  0.56197756  0.14385304  0.95462377    -0.44200
N2676       N  0.93890120  0.12718564  0.04967431    -0.44200
C2677       C  0.62935298  0.15255471  0.00993177    -0.00600
C2678       C  0.61463258  0.12538795  0.00301340    -0.12500
C2679       C  0.62655424  0.11243708  0.98877423     0.01600
C2680       C  0.65376273  0.12673665  0.98182123    -0.00700
C2681       C  0.66846374  0.15372978  0.98915379    -0.12500
C2682       C  0.65656338  0.16673943  0.00287136     0.01500
H2683       H  0.59376701  0.11431582  0.00858385     0.14500
H2684       H  0.68942670  0.16478600  0.98400557     0.14500
C2685       C  0.67310443  0.19442512  0.01040520     0.36100
C2686       C  0.61077127  0.08436974  0.98269371     0.36000
N2687       N  0.68660585  0.21661538  0.01622489    -0.44200
N2688       N  0.59818197  0.06186697  0.97783098    -0.44200
C2689       C  0.68447820  0.27128079  0.03872346    -0.00600
C2690       C  0.68445404  0.28910465  0.01718936    -0.12500
C2691       C  0.70693947  0.31385179  0.01242487     0.01600
C2692       C  0.73005000  0.32105141  0.02912959    -0.00700
C2693       C  0.73110296  0.30225341  0.04800210    -0.12500
C2694       C  0.70856357  0.27746097  0.05292602     0.01500
H2695       H  0.66635327  0.28447314  0.00539914     0.14500
H2696       H  0.74922598  0.30747846  0.06005834     0.14500
C2697       C  0.71089423  0.25876557  0.07219057     0.36100
C2698       C  0.70547583  0.33177966  0.99101270     0.36000
N2699       N  0.71325710  0.24377614  0.08714216    -0.44200
N2700       N  0.70395337  0.34560982  0.97331215    -0.44200
C2701       C  0.64759687  0.18340212  0.14376815    -0.00600
C2702       C  0.67480132  0.19528038  0.13811962    -0.12500
C2703       C  0.69319813  0.20632080  0.16203504     0.01600
C2704       C  0.68419718  0.20679484  0.19183117    -0.00700
C2705       C  0.65706011  0.19137991  0.19778754    -0.12500
C2706       C  0.63890012  0.17897229  0.17415226     0.01500
H2707       H  0.68169394  0.19803603  0.11479899     0.14500
H2708       H  0.64989902  0.19017144  0.22077241     0.14500
C2709       C  0.61129428  0.16260600  0.18137796     0.36100
C2710       C  0.72098899  0.21927700  0.15482355     0.36000
N2711       N  0.58932006  0.14867450  0.18743375    -0.44200
N2712       N  0.74324909  0.22953011  0.14895097    -0.44200
C2713       C  0.60614866  0.25036864  0.31234826    -0.00600
C2714       C  0.60776562  0.22928231  0.29919407    -0.12500
C2715       C  0.63177991  0.22940756  0.29883703     0.01600
C2716       C  0.65464875  0.25141940  0.31048480    -0.00700
C2717       C  0.65226830  0.27066818  0.32719318    -0.12500
C2718       C  0.62795509  0.26994579  0.32874243     0.01500
H2719       H  0.59092752  0.21389659  0.28711883     0.14500
H2720       H  0.66980398  0.28753739  0.33654306     0.14500
C2721       C  0.62651875  0.29102976  0.34441251     0.36100
C2722       C  0.63289651  0.20737851  0.28537697     0.36000
N2723       N  0.62527476  0.30779582  0.35715677    -0.44200
N2724       N  0.63365244  0.18935202  0.27544387    -0.44200
C2725       C  0.55254452  0.19164054  0.14617282    -0.00600
C2726       C  0.55369999  0.18395690  0.17598264    -0.12500
C2727       C  0.54426145  0.19260996  0.20012123     0.01600
C2728       C  0.53402536  0.20956707  0.19428433    -0.00700
C2729       C  0.52874642  0.21334643  0.16419363    -0.12500
C2730       C  0.53783207  0.20430239  0.14004646     0.01500
H2731       H  0.56422324  0.17349253  0.18073624     0.14500
H2732       H  0.01789800  0.22323680  0.15487221     0.14500
C2733       C  0.53392827  0.21018072  0.10922756     0.36100
C2734       C  0.54662578  0.18524863  0.23080571     0.36000
N2735       N  0.03015528  0.21154472  0.08043026    -0.44200
N2736       N  0.54808407  0.17903062  0.25538238    -0.44200
C2737       C  0.97783897  0.35045897  0.98488421    -0.00600
C2738       C  0.97938771  0.35485824  0.01640000    -0.12500
C2739       C  0.50413650  0.36145539  0.03326393     0.01600
C2740       C  0.52742366  0.37280873  0.01578858    -0.00700
C2741       C  0.52571203  0.37308820  0.98392969    -0.12500
C2742       C  0.50116751  0.36160645  0.96929330     0.01500
H2743       H  0.96138423  0.34803343  0.02949055     0.14500
H2744       H  0.54365407  0.38199543  0.97041722     0.14500
C2745       C  0.50064465  0.36122895  0.93644671     0.36100
C2746       C  0.00393110  0.36902174  0.06413613     0.36000
N2747       N  0.50058716  0.36108012  0.91011823    -0.44200
N2748       N  0.00403932  0.37066218  0.09038669    -0.44200
C2749       C  0.64867490  0.02337784  0.97907123    -0.00600
C2750       C  0.64491599  0.02242327  0.01076391    -0.12500
C2751       C  0.63250870  0.49885308  0.02616998     0.01600
C2752       C  0.62342099  0.47459340  0.01036623    -0.00700
C2753       C  0.62599449  0.47539050  0.97841490    -0.12500
C2754       C  0.63931037  0.99921367  0.96308016     0.01500
H2755       H  0.65196627  0.04073330  0.02347040     0.14500
H2756       H  0.61911069  0.45709708  0.96573384     0.14500
C2757       C  0.64338474  0.99855535  0.93073804     0.36100
C2758       C  0.63105562  0.50015799  0.05889091     0.36000
N2759       N  0.64672228  0.99800650  0.90484494    -0.44200
N2760       N  0.62998116  0.50133694  0.08510260    -0.44200
C2761       C  0.59127427  0.31781469  0.04903120    -0.00600
C2762       C  0.58680836  0.30411721  0.07660595    -0.12500
C2763       C  0.58709248  0.28043529  0.07817473     0.01600
C2764       C  0.58993734  0.26867001  0.05130187    -0.00700
C2765       C  0.59043786  0.28022792  0.02312259    -0.12500
C2766       C  0.59143398  0.30487065  0.02176261     0.01500
H2767       H  0.58545092  0.31307485  0.09773051     0.14500
H2768       H  0.59244041  0.27125783  0.00237863     0.14500
C2769       C  0.59430766  0.31699711  0.99238755     0.36100
C2770       C  0.58703216  0.27039938  0.10823049     0.36000
N2771       N  0.59653546  0.32672253  0.96883393    -0.44200
N2772       N  0.58753093  0.26341123  0.13271410    -0.44200
C2773       C  0.56613664  0.35926205  0.15090974    -0.00600
C2774       C  0.54162495  0.33607707  0.14590901    -0.12500
C2775       C  0.53151701  0.31494424  0.16703834     0.01600
C2776       C  0.54602937  0.31695542  0.19354491    -0.00700
C2777       C  0.56923919  0.34080548  0.19955131    -0.12500
C2778       C  0.57931806  0.36173944  0.17882386     0.01500
H2779       H  0.53135901  0.33363323  0.12458361     0.14500
H2780       H  0.58037147  0.34263085  0.22005228     0.14500
C2781       C  0.60419060  0.38494948  0.18634691     0.36100
C2782       C  0.50729014  0.29083764  0.16016688     0.36000
N2783       N  0.62427240  0.40314011  0.19282636    -0.44200
N2784       N  0.48779633  0.27151207  0.15475542    -0.44200
C2785       C  0.68695542  0.41727466  0.02515794    -0.00600
C2786       C  0.70668162  0.43494409  0.04487552    -0.12500
C2787       C  0.73172840  0.43762129  0.04464964     0.01600
C2788       C  0.73701494  0.42149270  0.02520832    -0.00700
C2789       C  0.71854661  0.40681241  0.00237562    -0.12500
C2790       C  0.69337787  0.40437017  0.00239769     0.01500
H2791       H  0.70181309  0.44499293  0.06226599     0.14500
H2792       H  0.72275888  0.39518774  0.98648473     0.14500
C2793       C  0.67376097  0.38640509  0.98113875     0.36100
C2794       C  0.75099276  0.45598193  0.06587099     0.36000
N2795       N  0.65813695  0.37201258  0.96397761    -0.44200
N2796       N  0.76616559  0.47107572  0.08284967    -0.44200
C2797       C  0.75008313  0.40023813  0.28011528    -0.00600
C2798       C  0.75924069  0.39161129  0.25559820    -0.12500
C2799       C  0.75767175  0.36695782  0.25601836     0.01600
C2800       C  0.74653181  0.34999842  0.28127984    -0.00700
C2801       C  0.74026469  0.35976692  0.30731250    -0.12500
C2802       C  0.74215591  0.38479900  0.30707184     0.01500
H2803       H  0.76639410  0.40352629  0.23516905     0.14500
H2804       H  0.73237956  0.34724740  0.32721041     0.14500
C2805       C  0.73472982  0.39337678  0.33432722     0.36100
C2806       C  0.76692515  0.35937835  0.22956900     0.36000
N2807       N  0.72900999  0.40032951  0.35629322    -0.44200
N2808       N  0.77432076  0.35357699  0.20810987    -0.44200
C2809       C  0.79257300  0.47610586  0.18377659    -0.00600
C2810       C  0.79903426  0.45673060  0.19183351    -0.12500
C2811       C  0.80816202  0.44558860  0.16998360     0.01600
C2812       C  0.81110184  0.45385021  0.13941431    -0.00700
C2813       C  0.80801746  0.47566674  0.13223073    -0.12500
C2814       C  0.79850138  0.48664741  0.15411733     0.01500
H2815       H  0.79478862  0.44866881  0.21468459     0.14500
H2816       H  0.81076796  0.48252699  0.10892202     0.14500
C2817       C  0.79525891  0.00645984  0.14553538     0.36100
C2818       C  0.81272839  0.42438868  0.17889519     0.36000
N2819       N  0.79188609  0.02361295  0.13820478    -0.44200
N2820       N  0.81674211  0.40760196  0.18594802    -0.44200
C2821       C  0.66222979  0.39583743  0.29117518    -0.00600
C2822       C  0.66407049  0.37301534  0.28610803    -0.12500
C2823       C  0.64175980  0.34801298  0.28588243     0.01600
C2824       C  0.61690381  0.34518475  0.29253346    -0.00700
C2825       C  0.61511789  0.36767429  0.30044194    -0.12500
C2826       C  0.63772500  0.39315328  0.29955078     0.01500
H2827       H  0.68296120  0.37491155  0.27999026     0.14500
H2828       H  0.59595512  0.36551075  0.30536234     0.14500
C2829       C  0.63501243  0.41610038  0.30503295     0.36100
C2830       C  0.64487195  0.32593033  0.27633036     0.36000
N2831       N  0.63281639  0.43450262  0.30950423    -0.44200
N2832       N  0.64786878  0.30869743  0.26815592    -0.44200
C2833       C  0.69284253  0.48034959  0.18295297    -0.00600
C2834       C  0.70224722  0.48647069  0.15305401    -0.12500
C2835       C  0.68445898  0.47763848  0.12867356     0.01600
C2836       C  0.65712260  0.46211112  0.13437869    -0.00700
C2837       C  0.64787156  0.46062801  0.16416916    -0.12500
C2838       C  0.66565231  0.46971469  0.18856471     0.01500
H2839       H  0.72326853  0.49569335  0.14861806     0.14500
H2840       H  0.62681847  0.44977653  0.16871404     0.14500
C2841       C  0.65645734  0.96739446  0.21886125     0.36100
C2842       C  0.69457015  0.48390686  0.09804127     0.36000
N2843       N  0.64906922  0.96481797  0.24372167    -0.44200
N2844       N  0.70270748  0.48957566  0.07354086    -0.44200
C2845       C  0.80010367  0.30616514  0.67441617    -0.00600
C2846       C  0.79145438  0.30977121  0.64589519    -0.12500
C2847       C  0.80444296  0.33431231  0.63087880     0.01600
C2848       C  0.82686027  0.35597898  0.64430068    -0.00700
C2849       C  0.83562023  0.35213539  0.67267800    -0.12500
C2850       C  0.82256523  0.32767871  0.68767543     0.01500
H2851       H  0.77440056  0.29328692  0.63524634     0.14500
H2852       H  0.85278410  0.36839120  0.68343907     0.14500
C2853       C  0.83356290  0.32492123  0.71586227     0.36100
C2854       C  0.79462669  0.33634219  0.60147274     0.36000
N2855       N  0.84262863  0.32281879  0.73832248    -0.44200
N2856       N  0.78674354  0.33792490  0.57789108    -0.44200
C2857       C  0.81898948  0.45300682  0.65303369    -0.00600
C2858       C  0.81602103  0.47156589  0.63583546    -0.12500
C2859       C  0.80526457  0.48597881  0.64848478     0.01600
C2860       C  0.79703322  0.48191394  0.67922994    -0.00700
C2861       C  0.79908627  0.46261135  0.69627020    -0.12500
C2862       C  0.81021861  0.44830201  0.68348446     0.01500
H2863       H  0.82282728  0.47540980  0.61242197     0.14500
H2864       H  0.79254307  0.45912437  0.71975570     0.14500
C2865       C  0.81193889  0.42865986  0.70175362     0.36100
C2866       C  0.80265741  0.50445992  0.62892676     0.36000
N2867       N  0.81325753  0.41284902  0.71634510    -0.44200
N2868       N  0.80072001  0.51921594  0.61304436    -0.44200
C2869       C  0.81321956  0.29503100  0.31454912    -0.00600
C2870       C  0.81567783  0.30298260  0.34523254    -0.12500
C2871       C  0.83993241  0.31387886  0.36060607     0.01600
C2872       C  0.86262227  0.31719971  0.34520504    -0.00700
C2873       C  0.85999225  0.30869172  0.31467993    -0.12500
C2874       C  0.83569552  0.29766409  0.29938307     0.01500
H2875       H  0.79852040  0.30083713  0.35731261     0.14500
H2876       H  0.87718119  0.31113194  0.30241001     0.14500
C2877       C  0.83479507  0.29054447  0.26772895     0.36100
C2878       C  0.84106613  0.32265992  0.39161449     0.36000
N2879       N  0.83411246  0.28490998  0.24233903    -0.44200
N2880       N  0.84183917  0.32969530  0.41644129    -0.44200
C2881       C  0.98700005  0.29010094  0.31599749    -0.00600
C2882       C  0.99308418  0.29876460  0.34636100    -0.12500
C2883       C  0.98018415  0.31030117  0.36133248     0.01600
C2884       C  0.96114953  0.31371505  0.34564170    -0.00700
C2885       C  0.95410899  0.30399918  0.31588079    -0.12500
C2886       C  0.96647991  0.29179557  0.30112062     0.01500
H2887       H  0.00830669  0.29691082  0.35832557     0.14500
H2888       H  0.93942453  0.30669563  0.30383437     0.14500
C2889       C  0.46354828  0.28513058  0.27105496     0.36100
C2890       C  0.98786907  0.31974333  0.39211385     0.36000
N2891       N  0.45825970  0.27800011  0.24611753    -0.44200
N2892       N  0.99416562  0.32713614  0.41681008    -0.44200
C2893       C  0.89807504  0.38605298  0.46287898    -0.00600
C2894       C  0.90035687  0.41123354  0.46128133    -0.12500
C2895       C  0.89102499  0.42076759  0.48432986     0.01600
C2896       C  0.87794487  0.40463697  0.50977414    -0.00700
C2897       C  0.87279878  0.37830926  0.50990475    -0.12500
C2898       C  0.88294357  0.36896273  0.48684919     0.01500
H2899       H  0.91118387  0.42459918  0.44280310     0.14500
H2900       H  0.86264078  0.36568131  0.52917234     0.14500
C2901       C  0.87867645  0.34241929  0.48936211     0.36100
C2902       C  0.89734435  0.44811628  0.48206924     0.36000
N2903       N  0.87514036  0.32107808  0.49144062    -0.44200
N2904       N  0.90309169  0.47018626  0.48026199    -0.44200
C2905       C  0.68056842  0.14393683  0.34623011    -0.00600
C2906       C  0.69998654  0.16546574  0.36296057    -0.12500
C2907       C  0.71533460  0.19041816  0.34954570     0.01600
C2908       C  0.71168672  0.19412294  0.31856935    -0.00700
C2909       C  0.69233174  0.17263753  0.30181402    -0.12500
C2910       C  0.67672332  0.14780906  0.31526118     0.01500
H2911       H  0.70326083  0.16278691  0.38664358     0.14500
H2912       H  0.68903264  0.17535739  0.27812750     0.14500
C2913       C  0.65759017  0.12661451  0.29626327     0.36100
C2914       C  0.73521010  0.21161155  0.36785707     0.36000
N2915       N  0.64228724  0.10973370  0.28092872    -0.44200
N2916       N  0.75116304  0.22862990  0.38248099    -0.44200
C2917       C  0.71746390  0.02629554  0.30939277    -0.00600
C2918       C  0.70303564  0.03502038  0.29228780    -0.12500
C2919       C  0.69031943  0.04732199  0.30625727     0.01600
C2920       C  0.69212883  0.05146729  0.33827608    -0.00700
C2921       C  0.70798534  0.04416212  0.35500112    -0.12500
C2922       C  0.72049242  0.03168788  0.34100351     0.01500
H2923       H  0.70017569  0.53002062  0.26995291     0.14500
H2924       H  0.71002791  0.04741751  0.37939145     0.14500
C2925       C  0.73647584  0.02482918  0.35973622     0.36100
C2926       C  0.67509850  0.05474539  0.28693933     0.36000
N2927       N  0.74928621  0.01936051  0.37477169    -0.44200
N2928       N  0.66232414  0.55930674  0.27337943    -0.44200
C2929       C  0.57320790  0.48212534  0.35171133    -0.00600
C2930       C  0.57035708  0.45972679  0.36695912    -0.12500
C2931       C  0.54648211  0.43567495  0.36571664     0.01600
C2932       C  0.52473501  0.43424630  0.35009381    -0.00700
C2933       C  0.52887846  0.45536520  0.33119870    -0.12500
C2934       C  0.55304631  0.47927430  0.33176517     0.01500
H2935       H  0.58601686  0.46160349  0.38179103     0.14500
H2936       H  0.51243776  0.45427767  0.31860909     0.14500
C2937       C  0.55541861  0.50152532  0.31474273     0.36100
C2938       C  0.54442186  0.41301275  0.38147500     0.36000
N2939       N  0.55685089  0.02007370  0.30088747    -0.44200
N2940       N  0.54310805  0.39479992  0.39364950    -0.44200
C2941       C  0.54112203  0.35685052  0.64063597    -0.00600
C2942       C  0.55624347  0.34512581  0.64853036    -0.12500
C2943       C  0.54488574  0.32097885  0.66423303     0.01600
C2944       C  0.51787190  0.30814872  0.67217697    -0.00700
C2945       C  0.50256523  0.31937459  0.66311689    -0.12500
C2946       C  0.51389239  0.34348781  0.64754836     0.01500
H2947       H  0.57713223  0.35516051  0.64305423     0.14500
H2948       H  0.98075030  0.31042605  0.66921535     0.14500
C2949       C  0.49698620  0.35372164  0.63823084     0.36100
C2950       C  0.56110952  0.30936010  0.67088053     0.36000
N2951       N  0.98461597  0.36624212  0.63738133    -0.44200
N2952       N  0.57407893  0.29997025  0.67601440    -0.44200
C2953       C  0.64627067  0.45275345  0.64987743    -0.00600
C2954       C  0.66916094  0.45926457  0.63295100    -0.12500
C2955       C  0.69424334  0.47206083  0.64638501     0.01600
C2956       C  0.69701974  0.47858913  0.67770436    -0.00700
C2957       C  0.67413704  0.47114719  0.69496839    -0.12500
C2958       C  0.64902353  0.45855016  0.68151913     0.01500
H2959       H  0.66764160  0.45490358  0.60879058     0.14500
H2960       H  0.67422342  0.97700196  0.71915392     0.14500
C2961       C  0.62676777  0.45262484  0.70091163     0.36100
C2962       C  0.71667997  0.47808142  0.62729315     0.36000
N2963       N  0.60902290  0.44801502  0.71653312    -0.44200
N2964       N  0.73462759  0.48293218  0.61192916    -0.44200
C2965       C  0.99494222  0.42976149  0.61145156    -0.00600
C2966       C  0.98059180  0.42540485  0.58443598    -0.12500
C2967       C  0.95704068  0.42588953  0.58397283     0.01600
C2968       C  0.94734637  0.43117577  0.61103211    -0.00700
C2969       C  0.95978460  0.43207282  0.63869537    -0.12500
C2970       C  0.98321185  0.43093565  0.63919411     0.01500
H2971       H  0.98832097  0.42267835  0.56310420     0.14500
H2972       H  0.95186434  0.43479040  0.65986957     0.14500
C2973       C  0.99447378  0.43098635  0.66838717     0.36100
C2974       C  0.94382967  0.42136453  0.55503338     0.36000
N2975       N  0.00293148  0.43039374  0.69197007    -0.44200
N2976       N  0.93383977  0.41770123  0.53145755    -0.44200
C2977       C  0.63536705  0.48550659  0.52166673    -0.00600
C2978       C  0.63347457  0.47460849  0.49265174    -0.12500
C2979       C  0.64093988  0.49086631  0.46685111     0.01600
C2980       C  0.65025171  0.01868647  0.46913590    -0.00700
C2981       C  0.65662319  0.03003819  0.49830943    -0.12500
C2982       C  0.64893608  0.01382282  0.52418277     0.01500
H2983       H  0.62308557  0.45325239  0.48973849     0.14500
H2984       H  0.66476706  0.05124509  0.50104517     0.14500
C2985       C  0.65442115  0.02604991  0.55390640     0.36100
C2986       C  0.63596771  0.47877135  0.43707526     0.36000
N2987       N  0.65925703  0.03587118  0.57772692    -0.44200
N2988       N  0.63201706  0.46924446  0.41312180    -0.44200
C2989       C  0.99419911  0.37521200  0.46512227    -0.00600
C2990       C  0.51709827  0.39879129  0.45860160    -0.12500
C2991       C  0.53731212  0.40880818  0.47999379     0.01600
C2992       C  0.53395311  0.39564337  0.50803685    -0.00700
C2993       C  0.01112848  0.37142109  0.51455950    -0.12500
C2994       C  0.99069720  0.36130811  0.49255994     0.01500
H2995       H  0.51949606  0.41029623  0.43827087     0.14500
H2996       H  0.00769499  0.36173142  0.53646274     0.14500
C2997       C  0.96559771  0.33844733  0.49987173     0.36100
C2998       C  0.56019068  0.43415670  0.47331614     0.36000
N2999       N  0.94541260  0.32016063  0.50578636    -0.44200
N3000       N  0.57781872  0.45478545  0.46743086    -0.44200
C3001       C  0.69417900  0.20539580  0.67737979    -0.00600
C3002       C  0.68000979  0.17776189  0.67944812    -0.12500
C3003       C  0.65474426  0.16313223  0.66734844     0.01600
C3004       C  0.64314723  0.17627442  0.65223364    -0.00700
C3005       C  0.65732393  0.20417225  0.65053084    -0.12500
C3006       C  0.68267373  0.21882604  0.66327547     0.01500
H3007       H  0.68902260  0.16746884  0.69026721     0.14500
H3008       H  0.64855824  0.21453991  0.63944409     0.14500
C3009       C  0.69681507  0.24734492  0.66075868     0.36100
C3010       C  0.64177097  0.13463883  0.67038037     0.36000
N3011       N  0.70817172  0.27022350  0.65885999    -0.44200
N3012       N  0.63155478  0.11187815  0.67324716    -0.44200
C3013       C  0.54811008  0.18417290  0.65531527    -0.00600
C3014       C  0.54092961  0.19935118  0.63707747    -0.12500
C3015       C  0.52948207  0.21332981  0.64979623     0.01600
C3016       C  0.52494777  0.21231444  0.68150699    -0.00700
C3017       C  0.53364085  0.19863598  0.69996743    -0.12500
C3018       C  0.54494157  0.18453778  0.68738178     0.01500
H3019       H  0.54368155  0.19987822  0.61263873     0.14500
H3020       H  0.53059899  0.19800891  0.72437204     0.14500
C3021       C  0.55215055  0.17008933  0.70828685     0.36100
C3022       C  0.02899561  0.23310126  0.62775115     0.36000
N3023       N  0.55773054  0.15845945  0.72516885    -0.44200
N3024       N  0.02691564  0.24787841  0.61205384    -0.44200
C3025       C  0.98547432  0.06303585  0.65299376    -0.00600
C3026       C  0.96481710  0.06448900  0.63887683    -0.12500
C3027       C  0.93988993  0.04186088  0.63599232     0.01600
C3028       C  0.93556058  0.01756897  0.64782494    -0.00700
C3029       C  0.95491176  0.01726049  0.66636822    -0.12500
C3030       C  0.97991591  0.03990313  0.66897467     0.01500
H3031       H  0.96897400  0.08247612  0.62734310     0.14500
H3032       H  0.95159540  0.99865068  0.67581900     0.14500
C3033       C  0.49884849  0.03939188  0.68573485     0.36100
C3034       C  0.91978694  0.04351158  0.61873263     0.36000
N3035       N  0.51465893  0.03870138  0.70088574    -0.44200
N3036       N  0.90370184  0.04511813  0.60515837    -0.44200
C3037       C  0.58183782  0.06008101  0.63630438    -0.00600
C3038       C  0.56859541  0.03959225  0.65741152    -0.12500
C3039       C  0.57223745  0.01754845  0.65711095     0.01600
C3040       C  0.58840901  0.01565341  0.63461836    -0.00700
C3041       C  0.60446164  0.03784474  0.61674581    -0.12500
C3042       C  0.60201517  0.06045600  0.61841139     0.01500
H3043       H  0.55400666  0.03978051  0.67235356     0.14500
H3044       H  0.61757554  0.03684360  0.60006477     0.14500
C3045       C  0.62053970  0.08392663  0.60208198     0.36100
C3046       C  0.56200302  0.49855995  0.68131999     0.36000
N3047       N  0.63596427  0.10304967  0.58989959    -0.44200
N3048       N  0.55184220  0.48221672  0.69952942    -0.44200
C3049       C  0.60875805  0.11882088  0.52834535    -0.00600
C3050       C  0.60576425  0.09350190  0.52997608    -0.12500
C3051       C  0.61683713  0.08443851  0.50842782     0.01600
C3052       C  0.63055631  0.10043714  0.48302398    -0.00700
C3053       C  0.63507612  0.12661650  0.48216023    -0.12500
C3054       C  0.62434004  0.13592868  0.50475489     0.01500
H3055       H  0.59369307  0.08011287  0.54788723     0.14500
H3056       H  0.64532082  0.13910724  0.46285927     0.14500
C3057       C  0.62745152  0.16198819  0.50176947     0.36100
C3058       C  0.61202418  0.05773393  0.51242115     0.36000
N3059       N  0.62983896  0.18286461  0.49939924    -0.44200
N3060       N  0.60746179  0.03616018  0.51589263    -0.44200
C3061       C  0.96151909  0.14027315  0.34646481    -0.00600
C3062       C  0.96867079  0.16334332  0.36353077    -0.12500
C3063       C  0.98031841  0.18836907  0.34968875     0.01600
C3064       C  0.98526473  0.19081649  0.31794967    -0.00700
C3065       C  0.97738171  0.16774116  0.30077199    -0.12500
C3066       C  0.96562578  0.14275515  0.31445824     0.01500
H3067       H  0.96530429  0.16192244  0.38790736     0.14500
H3068       H  0.98093064  0.16921282  0.27642166     0.14500
C3069       C  0.95807303  0.12023310  0.29463750     0.36100
C3070       C  0.47370922  0.20889179  0.36345439     0.36000
N3071       N  0.95203310  0.10224739  0.27868436    -0.44200
N3072       N  0.47256165  0.22586679  0.37581829    -0.44200
C3073       C  0.86161308  0.04258872  0.34362110    -0.00600
C3074       C  0.86082625  0.04446255  0.31190083    -0.12500
C3075       C  0.83671163  0.03316197  0.29642012     0.01600
C3076       C  0.81284997  0.01920204  0.31284540    -0.00700
C3077       C  0.81368469  0.01760989  0.34462643    -0.12500
C3078       C  0.83779219  0.02935071  0.36013365     0.01500
H3079       H  0.87916204  0.05454477  0.29916607     0.14500
H3080       H  0.79541055  0.00695615  0.35736216     0.14500
C3081       C  0.83743780  0.02618215  0.39271315     0.36100
C3082       C  0.83716948  0.03499426  0.26364684     0.36000
N3083       N  0.83667274  0.02334632  0.41880697    -0.44200
N3084       N  0.83760588  0.53597266  0.23723378    -0.44200
C3085       C  0.91872190  0.47859046  0.36322236    -0.00600
C3086       C  0.93418589  0.47816418  0.33881123    -0.12500
C3087       C  0.93729622  0.45616109  0.33374847     0.01600
C3088       C  0.92466319  0.43415084  0.35304792    -0.00700
C3089       C  0.90643297  0.43302910  0.37459873    -0.12500
C3090       C  0.90318421  0.45498953  0.37967910     0.01500
H3091       H  0.94646883  0.99667919  0.32524470     0.14500
H3092       H  0.89623702  0.41571986  0.38905050     0.14500
C3093       C  0.88425452  0.45289716  0.40217656     0.36100
C3094       C  0.95506454  0.45729175  0.31018741     0.36000
N3095       N  0.86869226  0.45087332  0.41987802    -0.44200
N3096       N  0.96912051  0.45804129  0.29115424    -0.44200
C3097       C  0.98056079  0.10771171  0.47930598    -0.00600
C3098       C  0.97052572  0.10564322  0.50872846    -0.12500
C3099       C  0.48653241  0.11423338  0.53254970     0.01600
C3100       C  0.51384754  0.12445711  0.52840297    -0.00700
C3101       C  0.52400602  0.12926252  0.49863510    -0.12500
C3102       C  0.00811154  0.12101951  0.47495172     0.01500
H3103       H  0.94951922  0.09599419  0.51217324     0.14500
H3104       H  0.54506253  0.13776822  0.49505299     0.14500
C3105       C  0.01927027  0.12628048  0.44474056     0.36100
C3106       C  0.47558691  0.11311402  0.56226597     0.36000
N3107       N  0.02807973  0.13082791  0.42045041    -0.44200
N3108       N  0.46664308  0.11303964  0.58576976    -0.44200
C3109       C  0.86034715  0.48642571  0.52644534    -0.00600
C3110       C  0.87178321  0.51397272  0.53043434    -0.12500
C3111       C  0.87901660  0.03124045  0.50542507     0.01600
C3112       C  0.87555083  0.02080029  0.47581519    -0.00700
C3113       C  0.86000410  0.49286354  0.47176510    -0.12500
C3114       C  0.85198286  0.47578322  0.49689532     0.01500
H3115       H  0.87703988  0.52237979  0.55304574     0.14500
H3116       H  0.85670185  0.48467180  0.44896965     0.14500
C3117       C  0.83819661  0.44758427  0.49119827     0.36100
C3118       C  0.89141276  0.05943325  0.51052910     0.36000
N3119       N  0.82712302  0.42498994  0.48656495    -0.44200
N3120       N  0.90060647  0.08197589  0.51464768    -0.44200
C3121       C  0.51309227  0.07124674  0.37659320    -0.00600
C3122       C  0.52653801  0.07593150  0.40427872    -0.12500
C3123       C  0.54992240  0.07520869  0.40644923     0.01600
C3124       C  0.56026382  0.06926189  0.38036638    -0.00700
C3125       C  0.54797645  0.06687216  0.35203069    -0.12500
C3126       C  0.52440175  0.06767578  0.34999757     0.01500
H3127       H  0.51781464  0.07862249  0.42483266     0.14500
H3128       H  0.55581207  0.06269276  0.33172061     0.14500
C3129       C  0.01088764  0.06096513  0.32209260     0.36100
C3130       C  0.56201367  0.07969008  0.43613724     0.36000
N3131       N  0.99971310  0.05627682  0.29916174    -0.44200
N3132       N  0.57126054  0.08318597  0.46015175    -0.44200
O3133       O  0.89349215  0.55279025  0.43604999    -0.82300
C3134       C  0.98584581  0.56306672  0.37939537     0.97100
O3135       O  0.97203779  0.54707975  0.39996425    -0.71400
O3136       O  0.96462761  0.57107298  0.44500751    -0.75000
Al3137     Al  0.94166984  0.54125727  0.42158593     1.49000
C3138       C  0.96223332  0.59010615  0.45480962     0.92300
O3139       O  0.94445213  0.61140037  0.38969723    -0.81200
O3140       O  0.90308592  0.54526365  0.34801833    -0.74800
Al3141     Al  0.92024964  0.58007686  0.41137988     1.90100
O3142       O  0.94627887  0.59355422  0.34707937    -0.73800
O3143       O  0.93305080  0.52390107  0.35527175    -0.73700
O3144       O  0.97622635  0.57318861  0.36177192    -0.79300
O3145       O  0.91956509  0.50865563  0.40092869    -0.77600
O3146       O  0.93356480  0.56025682  0.39674681    -1.13700
O3147       O  0.91370423  0.53137240  0.44901982    -0.72900
C3148       C  0.89483314  0.53562907  0.45200165     0.97800
C3149       C  0.95030825  0.61362263  0.36186343     0.94200
Al3150     Al  0.93905643  0.55913930  0.35666200     1.55600
O3151       O  0.94423623  0.59425275  0.44520646    -0.77500
C3152       C  0.92295781  0.50473063  0.37349806     0.98400
C3153       C  0.88771662  0.55289003  0.35805846     0.93300
O3154       O  0.89388894  0.56881394  0.38028682    -0.82800
O3155       O  0.60155355  0.64447803  0.56636558    -0.82300
C3156       C  0.51163889  0.58051457  0.64034369     0.97100
O3157       O  0.51926482  0.57387209  0.61679912    -0.71400
O3158       O  0.52308181  0.60426707  0.57047593    -0.75000
Al3159     Al  0.54614974  0.59357556  0.58747495     1.49000
C3160       C  0.53092929  0.62463861  0.55408383     0.92300
O3161       O  0.56041061  0.66728152  0.61151452    -0.81200
O3162       O  0.60077459  0.63923127  0.65067734    -0.74800
Al3163     Al  0.57992010  0.65427164  0.58992945     1.90100
O3164       O  0.56228819  0.65222595  0.65654551    -0.73800
O3165       O  0.56630042  0.58904204  0.65071986    -0.73700
O3166       O  0.52653580  0.60205543  0.65364612    -0.79300
O3167       O  0.56807310  0.58081010  0.60226031    -0.77600
O3168       O  0.56327602  0.62302676  0.60903784    -1.13700
O3169       O  0.56874959  0.60570279  0.55291777    -0.72900
C3170       C  0.59246685  0.62382757  0.55010976     0.97800
C3171       C  0.55751391  0.66703732  0.64007523     0.94200
Al3172     Al  0.56396427  0.62095652  0.64947910     1.55600
O3173       O  0.55414052  0.64421865  0.55714212    -0.77500
C3174       C  0.57234912  0.57810685  0.62977603     0.98400
C3175       C  0.61647638  0.66146732  0.63951484     0.93300
O3176       O  0.60908566  0.67093549  0.61829264    -0.82800
O3177       O  0.55935917  0.89874710  0.55194533    -0.82300
C3178       C  0.58252370  0.98964107  0.62303296     0.97100
O3179       O  0.57223816  0.98313838  0.59708840    -0.71400
O3180       O  0.60239355  0.97766669  0.55774760    -0.75000
Al3181     Al  0.56667974  0.95618768  0.56912746     1.49000
C3182       C  0.61534810  0.96881994  0.54404621     0.92300
O3183       O  0.61896817  0.93758544  0.60463888    -0.81200
O3184       O  0.54660128  0.89909052  0.63422089    -0.74800
Al3185     Al  0.58887776  0.91915314  0.57909714     1.90100
O3186       O  0.59846704  0.93674733  0.64689762    -0.73800
O3187       O  0.53389656  0.93569071  0.62809827    -0.73700
O3188       O  0.58599356  0.97372111  0.63891597    -0.79300
O3189       O  0.53054835  0.93650515  0.57848666    -0.77600
O3190       O  0.57420753  0.93723106  0.59418223    -1.13700
O3191       O  0.55884165  0.93365416  0.53454351    -0.72900
C3192       C  0.55173841  0.90939419  0.53236260     0.97800
C3193       C  0.61937909  0.94140924  0.63307251     0.94200
Al3194     Al  0.56688281  0.93624486  0.63372410     1.55600
O3195       O  0.60930726  0.94477985  0.54737612    -0.77500
C3196       C  0.52026726  0.93287708  0.60456620     0.98400
C3197       C  0.55352440  0.88290108  0.62558511     0.93300
O3198       O  0.57242899  0.88990168  0.60711368    -0.82800
O3199       O  0.65447803  0.60061331  0.43791198    -0.82300
C3200       C  0.59221114  0.50841423  0.36406419     0.97100
O3201       O  0.58949893  0.51283766  0.39131388    -0.71400
O3202       O  0.62582153  0.52276595  0.43114301    -0.75000
Al3203     Al  0.60784124  0.54067643  0.41899073     1.49000
C3204       C  0.64707728  0.53370819  0.44597395     0.92300
O3205       O  0.68026874  0.56573565  0.38513784    -0.81200
O3206       O  0.64455034  0.60104060  0.35392119    -0.74800
Al3207     Al  0.66628206  0.58234720  0.41058243     1.90100
O3208       O  0.65891993  0.56317830  0.34278889    -0.73800
O3209       O  0.59563700  0.56447883  0.36074304    -0.73700
O3210       O  0.60934288  0.52642414  0.34768199    -0.79300
O3211       O  0.58702283  0.55593436  0.40935266    -0.77600
O3212       O  0.63384182  0.56227880  0.39455409    -1.13700
O3213       O  0.61978771  0.56373645  0.45286846    -0.72900
C3214       C  0.63593498  0.58804915  0.45686109     0.97800
C3215       C  0.67643965  0.56065715  0.35688589     0.94200
Al3216     Al  0.62780627  0.56377106  0.35487732     1.55600
O3217       O  0.66314171  0.55814436  0.44261559    -0.77500
C3218       C  0.58243050  0.56313831  0.38417532     0.98400
C3219       C  0.66734407  0.61763873  0.36264280     0.93300
O3220       O  0.67832263  0.61152590  0.38312572    -0.82800
O3221       O  0.95719532  0.85125307  0.43097935    -0.82300
C3222       C  0.93561122  0.91707539  0.35649170     0.97100
O3223       O  0.95476563  0.92499132  0.37463497    -0.71400
O3224       O  0.93081239  0.90055219  0.42385951    -0.75000
Al3225     Al  0.96102174  0.90497066  0.40431910     1.49000
C3226       C  0.91454163  0.88140175  0.43989670     0.92300
O3227       O  0.89341019  0.83300719  0.38654740    -0.81200
O3228       O  0.95862061  0.85260316  0.34316860    -0.74800
Al3229     Al  0.92638877  0.84421105  0.40721911     1.90100
O3230       O  0.90873168  0.84372966  0.34034679    -0.73800
O3231       O  0.97800731  0.90421873  0.33947267    -0.73700
O3232       O  0.92602926  0.89468721  0.34386269    -0.79300
O3233       O  0.99309642  0.91182863  0.38618931    -0.77600
O3234       O  0.94335639  0.87401838  0.38567486    -1.13700
O3235       O  0.97140139  0.89325330  0.43864670    -0.72900
C3236       C  0.97275075  0.87283067  0.44408986     0.97800
C3237       C  0.88947946  0.83200006  0.35818423     0.94200
Al3238     Al  0.94287558  0.87373714  0.34504754     1.55600
O3239       O  0.91342662  0.85906586  0.43814435    -0.77500
C3240       C  0.99717445  0.91470562  0.35795250     0.98400
C3241       C  0.95176595  0.83133022  0.35734054     0.93300
O3242       O  0.93649639  0.82449427  0.38024538    -0.82800
O3243       O  0.84689713  0.94605588  0.55299484    -0.82300
C3244       C  0.92584754  0.93823100  0.60983976     0.97100
O3245       O  0.92141797  0.94611342  0.58505502    -0.71400
O3246       O  0.88949682  0.94083060  0.54162658    -0.75000
Al3247     Al  0.90135710  0.96236045  0.57696412     1.49000
C3248       C  0.87346726  0.91660664  0.53674074     0.92300
O3249       O  0.83048892  0.89024364  0.60997425    -0.81200
O3250       O  0.84891286  0.93737244  0.65254570    -0.74800
Al3251     Al  0.84303353  0.92043008  0.58365978     1.90100
O3252       O  0.86367319  0.89992114  0.63995831    -0.73800
O3253       O  0.89849523  0.97406196  0.64875146    -0.73700
O3254       O  0.91282507  0.93665416  0.63364324    -0.79300
O3255       O  0.91990042  0.98892670  0.60619495    -0.77600
O3256       O  0.87503837  0.93989419  0.60054766    -1.13700
O3257       O  0.88375885  0.98114862  0.56644485    -0.72900
C3258       C  0.86303812  0.97063065  0.55058528     0.97800
C3259       C  0.84109056  0.88357245  0.63039966     0.94200
Al3260     Al  0.88040039  0.93713115  0.64015957     1.55600
O3261       O  0.85519037  0.90325122  0.55565689    -0.77500
C3262       C  0.91636327  0.99240875  0.63352690     0.98400
C3263       C  0.83232506  0.94076006  0.63747536     0.93300
O3264       O  0.82907403  0.93614242  0.60923502    -0.82800
O3265       O  0.78011947  0.49699972  0.22277536    -0.82300
C3266       C  0.68412517  0.92141612  0.28059298     0.97100
O3267       O  0.69468544  0.92043848  0.25615177    -0.71400
O3268       O  0.70172054  0.95632138  0.21637690    -0.75000
Al3269     Al  0.72337947  0.94400893  0.23227384     1.49000
C3270       C  0.71010243  0.97872506  0.20430501     0.92300
O3271       O  0.73445908  0.51410543  0.26814353    -0.81200
O3272       O  0.77002722  0.98255690  0.30656528    -0.74800
Al3273     Al  0.75586706  0.50363541  0.24598277     1.90100
O3274       O  0.72901077  0.99255620  0.30904808    -0.73800
O3275       O  0.73735236  0.93193394  0.29565648    -0.73700
O3276       O  0.69538402  0.94171910  0.29730129    -0.79300
O3277       O  0.74376714  0.92960795  0.24674162    -0.77600
O3278       O  0.73754250  0.97033081  0.25891810    -1.13700
O3279       O  0.74886418  0.96021893  0.20066760    -0.72900
C3280       C  0.77285377  0.97748660  0.20297549     0.97800
C3281       C  0.72764086  0.50974206  0.29581103     0.94200
Al3282     Al  0.73345123  0.96309494  0.29877347     1.55600
O3283       O  0.73317792  0.99768261  0.20988749    -0.77500
C3284       C  0.74346251  0.92185382  0.27365811     0.98400
C3285       C  0.78737363  0.50578688  0.29810896     0.93300
O3286       O  0.78211599  0.51677159  0.27678496    -0.82800
O3287       O  0.56774540  0.88481912  0.10638226    -0.82300
C3288       C  0.65875408  0.90780555  0.03647927     0.97100
O3289       O  0.65096647  0.89620711  0.06146547    -0.71400
O3290       O  0.64638808  0.92778196  0.09988151    -0.75000
Al3291     Al  0.62428303  0.89202530  0.08865703     1.49000
C3292       C  0.63809419  0.94156181  0.11291703     0.92300
O3293       O  0.60580721  0.94571839  0.05443115    -0.81200
O3294       O  0.56934524  0.87730377  0.01939708    -0.74800
Al3295     Al  0.58802858  0.91503304  0.07952510     1.90100
O3296       O  0.61014281  0.92813784  0.01199410    -0.73800
O3297       O  0.60215742  0.85973486  0.02895559    -0.73700
O3298       O  0.64359715  0.91179672  0.02007791    -0.79300
O3299       O  0.60363350  0.85608732  0.07871974    -0.77600
O3300       O  0.60602823  0.90060158  0.06354379    -1.13700
O3301       O  0.60264553  0.88498026  0.12393929    -0.72900
C3302       C  0.57835229  0.87707088  0.12586682     0.97800
C3303       C  0.61238857  0.94792434  0.02665499     0.94200
Al3304     Al  0.60618551  0.89468751  0.02355664     1.55600
O3305       O  0.61404823  0.93543828  0.11066594    -0.77500
C3306       C  0.59875959  0.84572231  0.05249476     0.98400
C3307       C  0.55303629  0.88317212  0.03017925     0.93300
O3308       O  0.55900426  0.89895859  0.05222775    -0.82800
O3309       O  0.51978576  0.78161100  0.23022121    -0.82300
C3310       C  0.58625250  0.75589185  0.29976524     0.97100
O3311       O  0.59023300  0.76627372  0.27386840    -0.71400
O3312       O  0.55639173  0.73971731  0.23174870    -0.75000
Al3313     Al  0.57041755  0.77462543  0.24658622     1.49000
C3314       C  0.53487556  0.72693578  0.21775505     0.92300
O3315       O  0.99825790  0.71872283  0.27412091    -0.81200
O3316       O  0.52889787  0.78909885  0.31360337    -0.74800
Al3317     Al  0.00967916  0.75089885  0.25213659     1.90100
O3318       O  0.51697726  0.73732743  0.32111361    -0.73800
O3319       O  0.57930044  0.80469125  0.30845158    -0.73700
O3320       O  0.56702000  0.75263637  0.31566609    -0.79300
O3321       O  0.58776679  0.81024634  0.25935999    -0.77600
O3322       O  0.54297140  0.76545032  0.27091793    -1.13700
O3323       O  0.55704872  0.78588622  0.21319276    -0.72900
C3324       C  0.53945566  0.79249968  0.21253597     0.97800
C3325       C  0.99985452  0.71677993  0.30270082     0.94200
Al3326     Al  0.54752151  0.77053041  0.31117441     1.55600
O3327       O  0.51702987  0.73294686  0.22090721    -0.77500
C3328       C  0.59244095  0.81899147  0.28622146     0.98400
C3329       C  0.00389724  0.78050835  0.30241419     0.93300
O3330       O  0.99412844  0.76314944  0.28179231    -0.82800
O3331       O  0.61593212  0.66715263  0.10224837    -0.82300
C3332       C  0.59482423  0.74612786  0.05489224     0.97100
O3333       O  0.61088461  0.74852286  0.07542597    -0.71400
O3334       O  0.58727495  0.71303955  0.11662039    -0.75000
Al3335     Al  0.61879065  0.72440753  0.09500323     1.49000
C3336       C  0.57024523  0.69020736  0.12528366     0.92300
O3337       O  0.55389743  0.65602248  0.05997729    -0.81200
O3338       O  0.62091575  0.68823383  0.01775307    -0.74800
Al3339     Al  0.58619916  0.66434838  0.07988651     1.90100
O3340       O  0.57006415  0.67778700  0.01774331    -0.73800
O3341       O  0.63754692  0.73828762  0.02963347    -0.73700
O3342       O  0.58629506  0.72709093  0.03612214    -0.79300
O3343       O  0.65248675  0.73909532  0.07545071    -0.77600
O3344       O  0.60284922  0.69840556  0.06794680    -1.13700
O3345       O  0.63015583  0.70664001  0.12142796    -0.72900
C3346       C  0.63018946  0.68511392  0.12094487     0.97800
C3347       C  0.55082569  0.66057716  0.03276004     0.94200
Al3348     Al  0.60358141  0.70691016  0.02870587     1.55600
O3349       O  0.57051308  0.66980550  0.11587410    -0.77500
C3350       C  0.65632775  0.74771867  0.04849961     0.98400
C3351       C  0.61507781  0.66499507  0.02507877     0.93300
O3352       O  0.59859338  0.65258550  0.04603981    -0.82800
O3353       O  0.82664784  0.93723920  0.09765771    -0.82300
C3354       C  0.74810604  0.84831726  0.03232412     0.97100
O3355       O  0.74441033  0.86165590  0.05228900    -0.71400
O3356       O  0.77387737  0.86204791  0.09643007    -0.75000
Al3357     Al  0.76941764  0.88845958  0.07887310     1.49000
C3358       C  0.79401514  0.86392320  0.10926864     0.92300
O3359       O  0.83696303  0.88776941  0.05063807    -0.81200
O3360       O  0.81672612  0.93213010  0.00885787    -0.74800
Al3361     Al  0.82926152  0.91117117  0.07272367     1.90100
O3362       O  0.81988944  0.88742744  0.00637881    -0.73800
O3363       O  0.76478015  0.90443230  0.01475510    -0.73700
O3364       O  0.76916990  0.85854806  0.01710413    -0.79300
O3365       O  0.76296556  0.91444736  0.06253918    -0.77600
O3366       O  0.79761980  0.89877843  0.05552980    -1.13700
O3367       O  0.78607052  0.91161960  0.11230632    -0.72900
C3368       C  0.80788996  0.93247283  0.11547118     0.97800
C3369       C  0.83416043  0.88195715  0.02274204     0.94200
Al3370     Al  0.79310701  0.89597436  0.01512439     1.55600
O3371       O  0.81660246  0.88438399  0.10518386    -0.77500
C3372       C  0.75671798  0.91430180  0.03506162     0.98400
C3373       C  0.83930918  0.94645620  0.02028136     0.93300
O3374       O  0.84700228  0.93922418  0.04344671    -0.82800
O3375       O  0.72491820  0.73089157  0.21854886    -0.82300
C3376       C  0.73549131  0.81949750  0.27749248     0.97100
O3377       O  0.72780942  0.80743076  0.25250314    -0.71400
O3378       O  0.73398152  0.78128098  0.20917335    -0.75000
Al3379     Al  0.71091661  0.77132460  0.24298194     1.49000
C3380       C  0.75778742  0.78753606  0.20489053     0.92300
O3381       O  0.77913837  0.76671376  0.27915941    -0.81200
O3382       O  0.73198481  0.74089406  0.31916857    -0.74800
Al3383     Al  0.74978866  0.75106674  0.25107812     1.90100
O3384       O  0.77116940  0.79261100  0.30755005    -0.73800
O3385       O  0.69701966  0.75588417  0.31431769    -0.73700
O3386       O  0.73607342  0.80745560  0.30119332    -0.79300
O3387       O  0.68365515  0.76329892  0.27110966    -0.77600
O3388       O  0.73165872  0.76556907  0.26721584    -1.13700
O3389       O  0.69116496  0.73532778  0.23064847    -0.72900
C3390       C  0.70076111  0.72381271  0.21542314     0.97800
C3391       C  0.78654026  0.78466564  0.29911829     0.94200
Al3392     Al  0.73397330  0.77351501  0.30698175     1.55600
O3393       O  0.76958117  0.78067443  0.22390869    -0.77500
C3394       C  0.67928488  0.75575895  0.29823665     0.98400
C3395       C  0.72642294  0.72006553  0.30420995     0.93300
O3396       O  0.73107702  0.72086791  0.27597384    -0.82800
O3397       O  0.89016123  0.56637367  0.89242771    -0.82300
C3398       C  0.90549244  0.65125538  0.96916581     0.97100
O3399       O  0.89324293  0.64479480  0.94413745    -0.71400
O3400       O  0.92328054  0.64434316  0.90149909    -0.75000
Al3401     Al  0.88936992  0.61945470  0.91355879     1.49000
C3402       C  0.93783050  0.63945997  0.88503215     0.92300
O3403       O  0.94926923  0.61024019  0.94281763    -0.81200
O3404       O  0.87786413  0.56211173  0.97370541    -0.74800
Al3405     Al  0.91927056  0.58912516  0.91820315     1.90100
O3406       O  0.92818508  0.60262011  0.98641421    -0.73800
O3407       O  0.85902168  0.59486051  0.97287206    -0.73700
O3408       O  0.91077738  0.63568784  0.98293638    -0.79300
O3409       O  0.85457587  0.59629000  0.92372881    -0.77600
O3410       O  0.90101293  0.60247429  0.93596777    -1.13700
O3411       O  0.88243221  0.59779167  0.87748531    -0.72900
C3412       C  0.87860479  0.57446745  0.87486895     0.97800
C3413       C  0.94958414  0.61123213  0.97162241     0.94200
Al3414     Al  0.89443925  0.59895970  0.97574010     1.55600
O3415       O  0.93579861  0.61667571  0.88643410    -0.77500
C3416       C  0.84456799  0.59145713  0.94977813     0.98400
C3417       C  0.88902883  0.54956839  0.96508230     0.93300
O3418       O  0.90739154  0.55923474  0.94553074    -0.82800
O3419       O  0.49816178  0.77799557  0.76521753    -0.82300
C3420       C  0.92446142  0.67870526  0.70895150     0.97100
O3421       O  0.92065310  0.69067068  0.73050248    -0.71400
O3422       O  0.95573011  0.69997262  0.77151699    -0.75000
Al3423     Al  0.94357982  0.72106424  0.75345357     1.49000
C3424       C  0.97776933  0.70845151  0.78418965     0.92300
O3425       O  0.51402595  0.73089253  0.72200300    -0.81200
O3426       O  0.98035358  0.76569539  0.67949730    -0.74800
Al3427     Al  0.50409230  0.75307831  0.74256613     1.90100
O3428       O  0.99307146  0.72648331  0.67664181    -0.73800
O3429       O  0.93071372  0.73081534  0.68934089    -0.73700
O3430       O  0.94371366  0.69105200  0.69104620    -0.79300
O3431       O  0.92878623  0.74075529  0.73704499    -0.77600
O3432       O  0.96996300  0.73439692  0.72721067    -1.13700
O3433       O  0.95991353  0.74798496  0.78364377    -0.72900
C3434       C  0.97996727  0.77079859  0.78406588     0.97800
C3435       C  0.51019500  0.72404137  0.69439807     0.94200
Al3436     Al  0.96272378  0.72908361  0.68743353     1.55600
O3437       O  0.49867366  0.73132012  0.77868662    -0.77500
C3438       C  0.92097482  0.73866318  0.70987091     0.98400
C3439       C  0.50396388  0.78249713  0.68835264     0.93300
O3440       O  0.51605117  0.77818184  0.70948964    -0.82800
O3441       O  0.94177158  0.81886082  0.89534673    -0.82300
C3442       C  0.85178095  0.74651247  0.96178789     0.97100
O3443       O  0.86471466  0.74011254  0.94379702    -0.71400
O3444       O  0.87374408  0.76465518  0.89261464    -0.75000
Al3445     Al  0.89608455  0.76127771  0.91992817     1.49000
C3446       C  0.87392836  0.78393474  0.87954829     0.92300
O3447       O  0.89186485  0.83026878  0.93925480    -0.81200
O3448       O  0.93646062  0.81101438  0.98550462    -0.74800
Al3449     Al  0.91607107  0.82177892  0.91965275     1.90100
O3450       O  0.89541326  0.81909751  0.98510033    -0.73800
O3451       O  0.90369538  0.75897705  0.98785714    -0.73700
O3452       O  0.86287598  0.76809484  0.97643628    -0.79300
O3453       O  0.91844725  0.75427216  0.94440436    -0.77600
O3454       O  0.90420095  0.79104830  0.93937066    -1.13700
O3455       O  0.92441131  0.77591348  0.89206527    -0.72900
C3456       C  0.94161087  0.79883481  0.88418149     0.97800
C3457       C  0.88787047  0.83069884  0.96729161     0.94200
Al3458     Al  0.90011120  0.78957631  0.97999469     1.55600
O3459       O  0.89040657  0.80746919  0.88726589    -0.77500
C3460       C  0.91442360  0.74887758  0.97214730     0.98400
C3461       C  0.95136169  0.83290832  0.97256373     0.93300
O3462       O  0.94409616  0.84056948  0.94918740    -0.82800
O3463       O  0.67758955  0.61650646  0.89158267    -0.82300
C3464       C  0.74873003  0.59281707  0.95307516     0.97100
O3465       O  0.75375760  0.60953136  0.93229482    -0.71400
O3466       O  0.72214013  0.58393554  0.88781199    -0.75000
Al3467     Al  0.73186575  0.61647189  0.90697282     1.49000
C3468       C  0.70047191  0.56863509  0.87498960     0.92300
O3469       O  0.66097032  0.55313404  0.93541534    -0.81200
O3470       O  0.68968390  0.62111891  0.97677295    -0.80200
Al3471     Al  0.67139559  0.58571824  0.91464193     1.90100
O3472       O  0.67831871  0.56973816  0.97977661    -0.73800
O3473       O  0.74016463  0.63738254  0.97163044    -0.73700
O3474       O  0.72839901  0.58494295  0.96941199    -0.79300
O3475       O  0.74442647  0.65057412  0.92433983    -0.77600
O3476       O  0.70377273  0.60171092  0.93088667    -1.13700
O3477       O  0.71708447  0.62708140  0.87558123    -0.72900
C3478       C  0.69703095  0.62965859  0.87417438     0.97800
C3479       C  0.66301338  0.55013675  0.96352985     0.94200
Al3480     Al  0.70856756  0.60315778  0.97111108     1.55600
O3481       O  0.68007769  0.57039039  0.88032759    -0.77500
C3482       C  0.75098900  0.65552393  0.95196134     0.98400
C3483       C  0.66690024  0.61438474  0.96701543     0.93300
O3484       O  0.65646821  0.59770483  0.94562916    -0.82800
O3485       O  0.78694244  0.01112944  0.76708952    -0.82300
C3486       C  0.76404338  0.57980221  0.69704782     0.97100
O3487       O  0.77660904  0.58500134  0.72171214    -0.71400
O3488       O  0.74912149  0.55261019  0.76495599    -0.75000
Al3489     Al  0.78335948  0.56426036  0.74972486     1.49000
C3490       C  0.73596707  0.53157087  0.77983505     0.92300
O3491       O  0.72386102  0.99170788  0.72205516    -0.81200
O3492       O  0.79491529  0.52105120  0.68458084    -0.74800
Al3493     Al  0.75586646  0.00281126  0.74387502     1.90100
O3494       O  0.74335255  0.50911891  0.67672675    -0.73800
O3495       O  0.81137085  0.57171766  0.68742472    -0.73700
O3496       O  0.75906305  0.55952614  0.68188628    -0.79300
O3497       O  0.81818316  0.57839462  0.73645789    -0.77600
O3498       O  0.77229108  0.53604428  0.72620814    -1.13700
O3499       O  0.79333927  0.55041353  0.78381322    -0.72900
C3500       C  0.79881466  0.53199885  0.78503365     0.97800
C3501       C  0.72173972  0.99322801  0.69357427     0.94200
Al3502     Al  0.77676839  0.53989167  0.68601262     1.55600
O3503       O  0.73977048  0.01119779  0.77773051    -0.77500
C3504       C  0.82684580  0.58309479  0.70958048     0.98400
C3505       C  0.78515833  0.99668348  0.69357726     0.93300
O3506       O  0.76797177  0.98680136  0.71431224    -0.82800
O3507       O  0.73197361  0.71645990  0.76150821    -0.82300
C3508       C  0.82078102  0.72955995  0.69529861     0.97100
O3509       O  0.80761860  0.71095765  0.71381463    -0.71400
O3510       O  0.80534673  0.73480752  0.76215217    -0.75000
Al3511     Al  0.77959823  0.70602885  0.74050421     1.49000
C3512       C  0.80213207  0.75109831  0.77771839     0.92300
O3513       O  0.78364202  0.77709234  0.71751769    -0.81200
O3514       O  0.73656259  0.71094762  0.67500818    -0.74800
Al3515     Al  0.75870781  0.74526746  0.73788079     1.90100
O3516       O  0.77887242  0.76038529  0.67197417    -0.73800
O3517       O  0.76694924  0.68953336  0.67495929    -0.73700
O3518       O  0.81011733  0.74031085  0.68054730    -0.79300
O3519       O  0.75421012  0.67497056  0.72104507    -0.77600
O3520       O  0.77036154  0.72578212  0.71935839    -1.13700
O3521       O  0.75466937  0.69704054  0.77230802    -0.72900
C3522       C  0.73533760  0.70032833  0.77726898     0.97800
C3523       C  0.78682769  0.78028541  0.68913893     0.94200
Al3524     Al  0.77281810  0.72542743  0.67883512     1.55600
O3525       O  0.78388896  0.75621117  0.77155967    -0.77500
C3526       C  0.75622707  0.67043968  0.69352370     0.98400
C3527       C  0.72234360  0.71916764  0.68697105     0.93300
O3528       O  0.73103407  0.73674874  0.70782599    -0.82800
C3529       C  0.75504960  0.59795498  0.68697892    -0.00600
C3530       C  0.73611583  0.59950294  0.70482297    -0.12500
C3531       C  0.73275803  0.62152420  0.70327970     0.01600
C3532       C  0.74989706  0.64332806  0.68497539    -0.00700
C3533       C  0.76636215  0.64021684  0.66404425    -0.12500
C3534       C  0.76881976  0.61745382  0.66475743     0.01500
H3535       H  0.72527393  0.58432378  0.72165616     0.14500
H3536       H  0.77923750  0.65653169  0.64929867     0.14500
C3537       C  0.78709153  0.61555886  0.64430831     0.36100
C3538       C  0.71266368  0.62182900  0.72206962     0.36000
N3539       N  0.80148129  0.61402780  0.62745252    -0.44200
N3540       N  0.69616553  0.62149245  0.73694254    -0.44200
C3541       C  0.69782480  0.64890249  0.85171031    -0.00600
C3542       C  0.71578726  0.67583079  0.85710820    -0.12500
C3543       C  0.72574854  0.69403469  0.83306168     0.01600
C3544       C  0.71773789  0.68538578  0.80291375    -0.00700
C3545       C  0.69761998  0.65912618  0.79797644    -0.12500
C3546       C  0.68777212  0.64079859  0.82205483     0.01500
H3547       H  0.72391346  0.68218149  0.87976746     0.14500
H3548       H  0.69123995  0.65242700  0.77491949     0.14500
C3549       C  0.66955841  0.61326921  0.81536929     0.36100
C3550       C  0.74594895  0.72098123  0.83955355     0.36000
N3551       N  0.65496697  0.59116958  0.81010906    -0.44200
N3552       N  0.76206569  0.74256481  0.84494657    -0.44200
C3553       C  0.71784905  0.53123365  0.80349442    -0.00600
C3554       C  0.72191908  0.52621442  0.83358071    -0.12500
C3555       C  0.71292872  0.53525820  0.85783697     0.01600
C3556       C  0.70027171  0.55003675  0.85198199    -0.00700
C3557       C  0.69269404  0.55143014  0.82212574    -0.12500
C3558       C  0.70113364  0.54179059  0.79786914     0.01500
H3559       H  0.73401855  0.51731019  0.83818313     0.14500
H3560       H  0.68203469  0.56184730  0.81750465     0.14500
C3561       C  0.69262613  0.54304275  0.76743142     0.36100
C3562       C  0.71757674  0.52995546  0.88858338     0.36000
N3563       N  0.68503405  0.54331778  0.74321433    -0.44200
N3564       N  0.72085223  0.52534164  0.91325827    -0.44200
C3565       C  0.82341847  0.72785740  0.96540442    -0.00600
C3566       C  0.81538562  0.70772712  0.98694168    -0.12500
C3567       C  0.79042131  0.68502999  0.98516258     0.01600
C3568       C  0.77347491  0.68186660  0.96048828    -0.00700
C3569       C  0.78053371  0.70351136  0.94099099    -0.12500
C3570       C  0.80512706  0.72666280  0.94379037     0.01500
H3571       H  0.82919567  0.70902975  0.00411735     0.14500
H3572       H  0.76729520  0.70197339  0.92282229     0.14500
C3573       C  0.81122248  0.74894476  0.92440732     0.36100
C3574       C  0.78383001  0.66475576  0.00777397     0.36000
N3575       N  0.81567001  0.76707359  0.90954383    -0.44200
N3576       N  0.77864005  0.64876313  0.02621645    -0.44200
C3577       C  0.85437001  0.77763568  0.85464145    -0.00600
C3578       C  0.83548853  0.75075896  0.85041178    -0.12500
C3579       C  0.81777978  0.74234314  0.82638449     0.01600
C3580       C  0.81817388  0.76093873  0.80557939    -0.00700
C3581       C  0.83609015  0.78799589  0.81010372    -0.12500
C3582       C  0.85426024  0.79651280  0.83442570     0.01500
H3583       H  0.83463851  0.73579270  0.86576694     0.14500
H3584       H  0.83667176  0.80229506  0.79397868     0.14500
C3585       C  0.87297360  0.82443792  0.83729312     0.36100
C3586       C  0.79965849  0.71414684  0.82362087     0.36000
N3587       N  0.88799691  0.84685767  0.83952608    -0.44200
N3588       N  0.78546943  0.69149121  0.82200596    -0.44200
C3589       C  0.85519348  0.60339440  0.70532835    -0.00600
C3590       C  0.87091146  0.61174880  0.73158842    -0.12500
C3591       C  0.89560971  0.63437635  0.73176616     0.01600
C3592       C  0.90498181  0.65025916  0.70550729    -0.00700
C3593       C  0.89104948  0.64048934  0.67808224    -0.12500
C3594       C  0.86643839  0.61676462  0.67766484     0.01500
H3595       H  0.86333203  0.60143906  0.75294393     0.14500
H3596       H  0.89840668  0.65221557  0.65754118     0.14500
C3597       C  0.85317053  0.60714551  0.64890898     0.36100
C3598       C  0.90989030  0.64142501  0.76017632     0.36000
N3599       N  0.84301792  0.59923099  0.62561037    -0.44200
N3600       N  0.92033279  0.64586073  0.78354500    -0.44200
C3601       C  0.89855583  0.74291258  0.70240621    -0.00600
C3602       C  0.88432766  0.73202218  0.67521207    -0.12500
C3603       C  0.85964206  0.72999447  0.67053922     0.01600
C3604       C  0.84909090  0.73908681  0.69316016    -0.00700
C3605       C  0.86433443  0.75243726  0.71856842    -0.12500
C3606       C  0.88890981  0.75458667  0.72335097     0.01500
H3607       H  0.89153348  0.72341211  0.65849586     0.14500
H3608       H  0.85615521  0.75963156  0.73587252     0.14500
C3609       C  0.90277728  0.76762776  0.75085132     0.36100
C3610       C  0.84468075  0.71700950  0.64351898     0.36000
N3611       N  0.91338918  0.77801633  0.77316628    -0.44200
N3612       N  0.83263340  0.70679222  0.62182081    -0.44200
C3613       C  0.96036691  0.80134134  0.85991113    -0.00600
C3614       C  0.97572213  0.78921322  0.86397863    -0.12500
C3615       C  0.98708146  0.78361790  0.83892506     0.01600
C3616       C  0.98172742  0.78860737  0.80916580    -0.00700
C3617       C  0.96929334  0.80368416  0.80542862    -0.12500
C3618       C  0.95887233  0.81037290  0.83059396     0.01500
H3619       H  0.97765724  0.78284206  0.88652482     0.14500
H3620       H  0.96559805  0.80812169  0.78262465     0.14500
C3621       C  0.94427860  0.82393505  0.82529206     0.36100
C3622       C  0.00339660  0.77186805  0.84402605     0.36000
N3623       N  0.93270560  0.83491754  0.82083912    -0.44200
N3624       N  0.51810900  0.76409689  0.84951546    -0.44200
C3625       C  0.81619534  0.58391514  0.95235489    -0.00600
C3626       C  0.80542762  0.58467656  0.98086800    -0.12500
C3627       C  0.78118339  0.58441240  0.98276041     0.01600
C3628       C  0.76736035  0.58282463  0.95590124    -0.00700
C3629       C  0.77624165  0.57829494  0.92828123    -0.12500
C3630       C  0.80048626  0.57956672  0.92590402     0.01500
H3631       H  0.81681724  0.58759722  0.00139955     0.14500
H3632       H  0.76553143  0.57693239  0.90755880     0.14500
C3633       C  0.80948724  0.57998427  0.89514358     0.36100
C3634       C  0.77195551  0.58774329  0.01196487     0.36000
N3635       N  0.81629186  0.58116736  0.87017875    -0.44200
N3636       N  0.76442384  0.59015356  0.03545399    -0.44200
C3637       C  0.81933988  0.53487932  0.80695573    -0.00600
C3638       C  0.81286167  0.52923996  0.83781847    -0.12500
C3639       C  0.83272323  0.53919750  0.86022021     0.01600
C3640       C  0.85924589  0.55664172  0.85192714    -0.00700
C3641       C  0.86590677  0.56035785  0.82095097    -0.12500
C3642       C  0.84621594  0.54869246  0.79851282     0.01500
H3643       H  0.79226298  0.51829815  0.84454650     0.14500
H3644       H  0.88633711  0.57307652  0.81430443     0.14500
C3645       C  0.85382413  0.55141615  0.76691193     0.36100
C3646       C  0.82526633  0.53311613  0.89177659     0.36000
N3647       N  0.85979006  0.55296900  0.74156273    -0.44200
N3648       N  0.81937211  0.52825230  0.91708082    -0.44200
C3649       C  0.91900200  0.72788649  0.98430773    -0.00600
C3650       C  0.93912791  0.72459938  0.97116141    -0.12500
C3651       C  0.93714765  0.69964972  0.97078726     0.01600
C3652       C  0.91396085  0.67764204  0.98159336    -0.00700
C3653       C  0.89622744  0.68159618  0.99914225    -0.12500
C3654       C  0.89937959  0.70698574  0.00179844     0.01500
H3655       H  0.95515921  0.74090280  0.95903445     0.14500
H3656       H  0.87909139  0.66471519  0.00904415     0.14500
C3657       C  0.88138346  0.71062767  0.02096296     0.36100
C3658       C  0.95795495  0.69650737  0.95721927     0.36000
N3659       N  0.86750093  0.71367660  0.03716922    -0.44200
N3660       N  0.97456952  0.69378669  0.94654829    -0.44200
C3661       C  0.95516965  0.66015266  0.86251509    -0.00600
C3662       C  0.96675217  0.65361076  0.83826624    -0.12500
C3663       C  0.97741787  0.67053889  0.81289509     0.01600
C3664       C  0.97779643  0.69494113  0.81238324    -0.00700
C3665       C  0.96880248  0.70250853  0.83766749    -0.12500
C3666       C  0.95701023  0.68551068  0.86206583     0.01500
H3667       H  0.96539864  0.63434696  0.83779670     0.14500
H3668       H  0.96747926  0.72040969  0.83644354     0.14500
C3669       C  0.94366068  0.69379011  0.88335449     0.36100
C3670       C  0.98558891  0.66152027  0.78664941     0.36000
N3671       N  0.93243043  0.70076634  0.89911131    -0.44200
N3672       N  0.99200399  0.65412562  0.76561067    -0.44200
C3673       C  0.85642269  0.97260352  0.00670222    -0.00600
C3674       C  0.86335649  0.99501782  0.02454775    -0.12500
C3675       C  0.87916188  0.52132102  0.01147135     0.01600
C3676       C  0.88095619  0.52390995  0.97944398    -0.00700
C3677       C  0.87256451  0.50136403  0.96123070    -0.12500
C3678       C  0.86286902  0.97558235  0.97544023     0.01500
H3679       H  0.85836230  0.99271862  0.04856152     0.14500
H3680       H  0.87412755  0.50334218  0.93667716     0.14500
C3681       C  0.85666148  0.95291262  0.95647413     0.36100
C3682       C  0.88824269  0.54405217  0.03132422     0.36000
N3683       N  0.85168166  0.93472420  0.94130249    -0.44200
N3684       N  0.89534073  0.56215269  0.04735706    -0.44200
C3685       C  0.84779749  0.86872494  0.00871243    -0.00600
C3686       C  0.85264989  0.87101234  0.97714754    -0.12500
C3687       C  0.86549453  0.85891467  0.96289470     0.01600
C3688       C  0.87412939  0.84431326  0.98038664    -0.00700
C3689       C  0.86886936  0.84181727  0.01189720    -0.12500
C3690       C  0.85571291  0.85349583  0.02598629     0.01500
H3691       H  0.84643182  0.88238466  0.96345427     0.14500
H3692       H  0.87466070  0.83022805  0.02582082     0.14500
C3693       C  0.84949352  0.84830512  0.05795061     0.36100
C3694       C  0.86919971  0.86170382  0.93036210     0.36000
N3695       N  0.84432511  0.84401088  0.08349205    -0.44200
N3696       N  0.87201947  0.86386636  0.90425742    -0.44200
C3697       C  0.78932812  0.84174589  0.13012901    -0.00600
C3698       C  0.76440439  0.81877334  0.12816492    -0.12500
C3699       C  0.75479558  0.79994924  0.15110434     0.01600
C3700       C  0.77058340  0.80303616  0.17689099    -0.00700
C3701       C  0.79695942  0.82404771  0.17712637    -0.12500
C3702       C  0.80642886  0.84347966  0.15392798     0.01500
H3703       H  0.75112531  0.81638866  0.10971998     0.14500
H3704       H  0.80942625  0.82651503  0.19652113     0.14500
C3705       C  0.83303119  0.86552327  0.15599607     0.36100
C3706       C  0.72740120  0.77931945  0.14879447     0.36000
N3707       N  0.85441207  0.88318979  0.15744721    -0.44200
N3708       N  0.70523815  0.76346665  0.14734244    -0.44200
C3709       C  0.52448648  0.64600419  0.01801463    -0.00600
C3710       C  0.50209175  0.64225606  0.03400014    -0.12500
C3711       C  0.97830472  0.62953295  0.01936667     0.01600
C3712       C  0.97537143  0.62259969  0.98803217    -0.00700
C3713       C  0.49666895  0.62525072  0.97358862    -0.12500
C3714       C  0.52153982  0.63712565  0.98757041     0.01500
H3715       H  0.50423945  0.64931714  0.05725922     0.14500
H3716       H  0.49489663  0.61855474  0.95021378     0.14500
C3717       C  0.54363956  0.63941115  0.97030502     0.36100
C3718       C  0.95644552  0.62615005  0.03794491     0.36000
N3719       N  0.56133059  0.64119935  0.95648889    -0.44200
N3720       N  0.93907643  0.62370351  0.05294220    -0.44200
C3721       C  0.62809092  0.65224061  0.00921606    -0.00600
C3722       C  0.61353204  0.62503803  0.00241632    -0.12500
C3723       C  0.62552098  0.61224855  0.98796888     0.01600
C3724       C  0.65266994  0.62673392  0.98076866    -0.00700
C3725       C  0.66716635  0.65382194  0.98771684    -0.12500
C3726       C  0.65515991  0.66669383  0.00153541     0.01500
H3727       H  0.59274474  0.61378962  0.00832367     0.14500
H3728       H  0.68805831  0.66503971  0.98224539     0.14500
C3729       C  0.67145328  0.69452749  0.00853612     0.36100
C3730       C  0.60987758  0.58415569  0.98196007     0.36000
N3731       N  0.68468644  0.71685034  0.01390819    -0.44200
N3732       N  0.59737129  0.56163994  0.97713140    -0.44200
C3733       C  0.68190103  0.77093740  0.03936843    -0.00600
C3734       C  0.68128452  0.78905038  0.01871448    -0.12500
C3735       C  0.70375455  0.81370407  0.01341212     0.01600
C3736       C  0.72749846  0.82044353  0.02846744    -0.00700
C3737       C  0.72894178  0.80142597  0.04657135    -0.12500
C3738       C  0.70636302  0.77681546  0.05224923     0.01500
H3739       H  0.66279446  0.78470255  0.00811386     0.14500
H3740       H  0.74741510  0.80640882  0.05763345     0.14500
C3741       C  0.70894410  0.75802318  0.07108392     0.36100
C3742       C  0.70167504  0.83216561  0.99340431     0.36000
N3743       N  0.71134489  0.74291208  0.08576478    -0.44200
N3744       N  0.69979290  0.84663055  0.97700393    -0.44200
C3745       C  0.64699380  0.68198186  0.14380632    -0.00600
C3746       C  0.67419791  0.69376809  0.13808103    -0.12500
C3747       C  0.69262094  0.70401601  0.16209240     0.01600
C3748       C  0.68370688  0.70400428  0.19205816    -0.00700
C3749       C  0.65653404  0.68857663  0.19795633    -0.12500
C3750       C  0.63831842  0.67690630  0.17418705     0.01500
H3751       H  0.68109805  0.69693521  0.11475936     0.14500
H3752       H  0.64939231  0.68695921  0.22102100     0.14500
C3753       C  0.61067750  0.66070962  0.18134652     0.36100
C3754       C  0.72038665  0.71639879  0.15496572     0.36000
N3755       N  0.58865535  0.64692462  0.18730443    -0.44200
N3756       N  0.74262043  0.72600503  0.14919559    -0.44200
C3757       C  0.60579883  0.74935261  0.31151919    -0.00600
C3758       C  0.60680470  0.72784983  0.29861934    -0.12500
C3759       C  0.63036135  0.72709408  0.29895340     0.01600
C3760       C  0.65338431  0.74867356  0.31099878    -0.00700
C3761       C  0.65141687  0.76818405  0.32764147    -0.12500
C3762       C  0.62755402  0.76837945  0.32844432     0.01500
H3763       H  0.58990235  0.71280826  0.28628146     0.14500
H3764       H  0.66908363  0.78474541  0.33722221     0.14500
C3765       C  0.62673524  0.78996479  0.34369486     0.36100
C3766       C  0.63091255  0.70467218  0.28573633     0.36000
N3767       N  0.62606555  0.80721675  0.35600927    -0.44200
N3768       N  0.63115364  0.68632474  0.27595959    -0.44200
C3769       C  0.55047876  0.68836428  0.14738570    -0.00600
C3770       C  0.55182322  0.68108536  0.17733172    -0.12500
C3771       C  0.54256353  0.69010723  0.20130340     0.01600
C3772       C  0.53245865  0.70712821  0.19512603    -0.00700
C3773       C  0.52671188  0.71021952  0.16498632    -0.12500
C3774       C  0.53548497  0.70068347  0.14101848     0.01500
H3775       H  0.56240324  0.67068137  0.18230585     0.14500
H3776       H  0.02100466  0.72584605  0.15555328     0.14500
C3777       C  0.53126637  0.70599410  0.11007064     0.36100
C3778       C  0.54473566  0.68286028  0.23209734     0.36000
N3779       N  0.03229503  0.71285486  0.08116644    -0.44200
N3780       N  0.54594351  0.67657874  0.25672466    -0.44200
C3781       C  0.97769775  0.84953808  0.98567273    -0.00600
C3782       C  0.97953458  0.85465487  0.01704277    -0.12500
C3783       C  0.50354578  0.86048713  0.03357448     0.01600
C3784       C  0.52681389  0.87187143  0.01606857    -0.00700
C3785       C  0.52512699  0.87217307  0.98421654    -0.12500
C3786       C  0.50058562  0.86070895  0.96960440     0.01500
H3787       H  0.96167370  0.84857544  0.03016460     0.14500
H3788       H  0.54307301  0.88119122  0.97071636     0.14500
C3789       C  0.49999972  0.86068763  0.93676049     0.36100
C3790       C  0.00443040  0.86982002  0.06446734     0.36000
N3791       N  0.49978410  0.86083694  0.91043594    -0.44200
N3792       N  0.00475508  0.87241773  0.09060513    -0.44200
C3793       C  0.64775894  0.52368608  0.97840617    -0.00600
C3794       C  0.64438909  0.52284670  0.01017784    -0.12500
C3795       C  0.63275370  0.99835511  0.02663446     0.01600
C3796       C  0.62362903  0.97409891  0.01078325    -0.00700
C3797       C  0.62689775  0.97504001  0.97891049    -0.12500
C3798       C  0.63797293  0.49946688  0.96243992     0.01500
H3799       H  0.65156409  0.54118960  0.02285651     0.14500
H3800       H  0.62025052  0.95679388  0.96620550     0.14500
C3801       C  0.64101284  0.49860921  0.92991116     0.36100
C3802       C  0.63111849  0.99957346  0.05933724     0.36000
N3803       N  0.64344935  0.49787182  0.90384990    -0.44200
N3804       N  0.62993563  0.00064551  0.08554708    -0.44200
C3805       C  0.59066618  0.81711736  0.05029717    -0.00600
C3806       C  0.58480199  0.80287649  0.07766131    -0.12500
C3807       C  0.58432368  0.77878393  0.07932897     0.01600
C3808       C  0.58788792  0.76723827  0.05271286    -0.00700
C3809       C  0.59022539  0.77961423  0.02460461    -0.12500
C3810       C  0.59208242  0.80463661  0.02319572     0.01500
H3811       H  0.58276718  0.81160284  0.09862358     0.14500
H3812       H  0.59312703  0.77097219  0.00410202     0.14500
C3813       C  0.59748843  0.81769124  0.99407990     0.36100
C3814       C  0.58275666  0.76799460  0.10932078     0.36000
N3815       N  0.60186219  0.82811997  0.97069294    -0.44200
N3816       N  0.58210115  0.76035260  0.13375637    -0.44200
C3817       C  0.56330808  0.85788711  0.15072460    -0.00600
C3818       C  0.54081118  0.83331368  0.14375840    -0.12500
C3819       C  0.53113202  0.81190718  0.16448675     0.01600
C3820       C  0.54405642  0.81498266  0.19258408    -0.00700
C3821       C  0.56502534  0.84000665  0.20039574    -0.12500
C3822       C  0.57458361  0.86127152  0.18004951     0.01500
H3823       H  0.53202541  0.83019542  0.12133882     0.14500
H3824       H  0.57487199  0.84265069  0.22212515     0.14500
C3825       C  0.59686410  0.88608357  0.18965506     0.36100
C3826       C  0.50905870  0.78661743  0.15577968     0.36000
N3827       N  0.61472570  0.90565523  0.19811415    -0.44200
N3828       N  0.49126334  0.76634453  0.14888576    -0.44200
C3829       C  0.68636445  0.91730811  0.02815682    -0.00600
C3830       C  0.70539519  0.93347155  0.04943947    -0.12500
C3831       C  0.73048190  0.93630480  0.04921348     0.01600
C3832       C  0.73655973  0.92186909  0.02798094    -0.00700
C3833       C  0.71884416  0.90893866  0.00387437    -0.12500
C3834       C  0.69362402  0.90636943  0.00395172     0.01500
H3835       H  0.69990501  0.94212330  0.06791108     0.14500
H3836       H  0.72359968  0.89859393  0.98671844     0.14500
C3837       C  0.67479913  0.89015965  0.98099247     0.36100
C3838       C  0.74873338  0.95270187  0.07246888     0.36000
N3839       N  0.65986268  0.87718964  0.96241875    -0.44200
N3840       N  0.76297462  0.96607887  0.09129067    -0.44200
C3841       C  0.74761524  0.89881479  0.27808962    -0.00600
C3842       C  0.75354372  0.88869858  0.25211517    -0.12500
C3843       C  0.75115125  0.86370276  0.25198599     0.01600
C3844       C  0.74295269  0.84792781  0.27854019    -0.00700
C3845       C  0.73982740  0.85907857  0.30556270    -0.12500
C3846       C  0.74217413  0.88436000  0.30561442     0.01500
H3847       H  0.75863853  0.89967536  0.23095370     0.14500
H3848       H  0.73423043  0.84753545  0.32633858     0.14500
C3849       C  0.73826562  0.89445269  0.33400175     0.36100
C3850       C  0.75627738  0.85465662  0.22354741     0.36000
N3851       N  0.73538817  0.90253765  0.35691282    -0.44200
N3852       N  0.76016046  0.84778841  0.20037503    -0.44200
C3853       C  0.79189362  0.97394073  0.18401431    -0.00600
C3854       C  0.79672067  0.95347090  0.19223348    -0.12500
C3855       C  0.80565073  0.94186786  0.17074179     0.01600
C3856       C  0.81006869  0.95079892  0.14035449    -0.00700
C3857       C  0.80872360  0.97361402  0.13320317    -0.12500
C3858       C  0.79937473  0.98503680  0.15472937     0.01500
H3859       H  0.79142759  0.94506542  0.21486548     0.14500
H3860       H  0.81240889  0.98086212  0.11002002     0.14500
C3861       C  0.79277280  0.50706155  0.14513035     0.36100
C3862       C  0.80865701  0.91973691  0.17990177     0.36000
N3863       N  0.78815759  0.52345818  0.13808670    -0.44200
N3864       N  0.81136441  0.90221921  0.18742341    -0.44200
C3865       C  0.66072462  0.89639575  0.29014876    -0.00600
C3866       C  0.66312110  0.87373395  0.28667082    -0.12500
C3867       C  0.64107824  0.84850039  0.28642610     0.01600
C3868       C  0.61581873  0.84524631  0.29135359    -0.00700
C3869       C  0.61334991  0.86765225  0.29753641    -0.12500
C3870       C  0.63572550  0.89334678  0.29675182     0.01500
H3871       H  0.68232770  0.87589163  0.28178856     0.14500
H3872       H  0.59389883  0.86520145  0.30116917     0.14500
C3873       C  0.63232372  0.91603048  0.30088066     0.36100
C3874       C  0.64496276  0.82654969  0.27861416     0.36000
N3875       N  0.62939738  0.93410036  0.30443047    -0.44200
N3876       N  0.64861772  0.80942149  0.27185617    -0.44200
C3877       C  0.69296062  0.98119111  0.18161720    -0.00600
C3878       C  0.70174294  0.98685404  0.15142480    -0.12500
C3879       C  0.68337967  0.97778194  0.12755320     0.01600
C3880       C  0.65616588  0.96247623  0.13409333    -0.00700
C3881       C  0.64760911  0.96166262  0.16404618    -0.12500
C3882       C  0.66590111  0.97084648  0.18792034     0.01500
H3883       H  0.72263959  0.99578806  0.14638554     0.14500
H3884       H  0.62665820  0.95113686  0.16913022     0.14500
C3885       C  0.65561690  0.46635688  0.21924178     0.36100
C3886       C  0.69266892  0.98330323  0.09653781     0.36000
N3887       N  0.64768678  0.46399549  0.24384392    -0.44200
N3888       N  0.69994963  0.98817386  0.07163914    -0.44200
C3889       C  0.79991914  0.80722616  0.67511680    -0.00600
C3890       C  0.79516984  0.80954153  0.64413387    -0.12500
C3891       C  0.80810062  0.83402841  0.62906348     0.01600
C3892       C  0.82662527  0.85696857  0.64484616    -0.00700
C3893       C  0.83114050  0.85478458  0.67586455    -0.12500
C3894       C  0.81790601  0.83041327  0.69109434     0.01500
H3895       H  0.78132444  0.79206642  0.63145972     0.14500
H3896       H  0.84497139  0.87234077  0.68845830     0.14500
C3897       C  0.82378650  0.82991234  0.72288159     0.36100
C3898       C  0.80267419  0.83480664  0.59716299     0.36000
N3899       N  0.82853896  0.82972921  0.74839304    -0.44200
N3900       N  0.79834924  0.83545472  0.57159088    -0.44200
C3901       C  0.81803615  0.95264738  0.65220687    -0.00600
C3902       C  0.81484801  0.97118070  0.63523494    -0.12500
C3903       C  0.80376791  0.98523789  0.64809648     0.01600
C3904       C  0.79553120  0.98090386  0.67884558    -0.00700
C3905       C  0.79771522  0.96154618  0.69560260    -0.12500
C3906       C  0.80904498  0.94750776  0.68256531     0.01500
H3907       H  0.82171050  0.97526582  0.61185569     0.14500
H3908       H  0.79109843  0.95778687  0.71905466     0.14500
C3909       C  0.81061113  0.92756494  0.70040756     0.36100
C3910       C  0.80078851  0.00362041  0.62876401     0.36000
N3911       N  0.81175298  0.91145156  0.71458763    -0.44200
N3912       N  0.79848517  0.01828674  0.61310991    -0.44200
C3913       C  0.81288784  0.79582687  0.31407525    -0.00600
C3914       C  0.81545765  0.80379272  0.34478524    -0.12500
C3915       C  0.83976079  0.81450622  0.36014224     0.01600
C3916       C  0.86239605  0.81772151  0.34467667    -0.00700
C3917       C  0.85967312  0.80941895  0.31405719    -0.12500
C3918       C  0.83535698  0.79854887  0.29881145     0.01500
H3919       H  0.79833088  0.80164467  0.35693844     0.14500
H3920       H  0.87680489  0.81184626  0.30167242     0.14500
C3921       C  0.83439828  0.79162872  0.26708102     0.36100
C3922       C  0.84101826  0.82304825  0.39128140     0.36000
N3923       N  0.83361968  0.78615098  0.24162347    -0.44200
N3924       N  0.84198673  0.82988784  0.41623354    -0.44200
C3925       C  0.98791588  0.79062095  0.31721648    -0.00600
C3926       C  0.99393196  0.79969963  0.34744821    -0.12500
C3927       C  0.98092218  0.81133770  0.36195548     0.01600
C3928       C  0.96170374  0.81427000  0.34597895    -0.00700
C3929       C  0.95474259  0.80415239  0.31638124    -0.12500
C3930       C  0.96735488  0.79203287  0.30201263     0.01500
H3931       H  0.00922972  0.79815336  0.35965451     0.14500
H3932       H  0.93996673  0.80653751  0.30410121     0.14500
C3933       C  0.47563856  0.79816179  0.26575319     0.36100
C3934       C  0.98877917  0.82145490  0.39248335     0.36000
N3935       N  0.47546213  0.79633077  0.23951986    -0.44200
N3936       N  0.99532022  0.82941195  0.41695606    -0.44200
C3937       C  0.89816246  0.88678470  0.46174302    -0.00600
C3938       C  0.90058090  0.91201719  0.46044073    -0.12500
C3939       C  0.89093778  0.92127884  0.48344310     0.01600
C3940       C  0.87756087  0.90487830  0.50862959    -0.00700
C3941       C  0.87225257  0.87849828  0.50836756    -0.12500
C3942       C  0.88260140  0.86938252  0.48528853     0.01500
H3943       H  0.91167728  0.92558587  0.44221835     0.14500
H3944       H  0.86181441  0.86563468  0.52736923     0.14500
C3945       C  0.87805207  0.84270634  0.48730351     0.36100
C3946       C  0.89716558  0.94860916  0.48137917     0.36000
N3947       N  0.87431917  0.82126616  0.48888439    -0.44200
N3948       N  0.90281777  0.97066024  0.47971616    -0.44200
C3949       C  0.68181432  0.64409510  0.34786905    -0.00600
C3950       C  0.70251968  0.66537978  0.36365918    -0.12500
C3951       C  0.71756479  0.69028226  0.34993622     0.01600
C3952       C  0.71245989  0.69404268  0.31953894    -0.00700
C3953       C  0.69192553  0.67283767  0.30371000    -0.12500
C3954       C  0.67646554  0.64818496  0.31753160     0.01500
H3955       H  0.70692668  0.66260608  0.38686108     0.14500
H3956       H  0.68749870  0.67571858  0.28052510     0.14500
C3957       C  0.65566161  0.62747545  0.29956481     0.36100
C3958       C  0.73849667  0.71144956  0.36724066     0.36000
N3959       N  0.63895183  0.61100057  0.28511086    -0.44200
N3960       N  0.75527300  0.72852649  0.38099056    -0.44200
C3961       C  0.71692239  0.52507415  0.31131800    -0.00600
C3962       C  0.70245795  0.53376042  0.29426133    -0.12500
C3963       C  0.68984953  0.54612671  0.30822391     0.01600
C3964       C  0.69181968  0.55040528  0.34019635    -0.00700
C3965       C  0.70743020  0.54280988  0.35698092    -0.12500
C3966       C  0.71982187  0.53023143  0.34298539     0.01500
H3967       H  0.70076815  0.03125429  0.26798113     0.14500
H3968       H  0.70945649  0.54602459  0.38138099     0.14500
C3969       C  0.73559718  0.52311281  0.36175755     0.36100
C3970       C  0.67462029  0.55353221  0.28891032     0.36000
N3971       N  0.74822596  0.51743049  0.37683021    -0.44200
N3972       N  0.66281412  0.06052720  0.27139419    -0.44200
C3973       C  0.57231922  0.98201822  0.35063250    -0.00600
C3974       C  0.56938759  0.95938288  0.36540582    -0.12500
C3975       C  0.54535870  0.93546470  0.36406778     0.01600
C3976       C  0.52354513  0.93452759  0.34918809    -0.00700
C3977       C  0.52767737  0.95591822  0.33081826    -0.12500
C3978       C  0.55203811  0.97959592  0.33119406     0.01500
H3979       H  0.58515848  0.96091443  0.37979459     0.14500
H3980       H  0.51118811  0.95516258  0.31872357     0.14500
C3981       C  0.55465595  0.00207865  0.31444670     0.36100
C3982       C  0.54317366  0.91228763  0.37868617     0.36000
N3983       N  0.55729755  0.51929420  0.30097425    -0.44200
N3984       N  0.54151374  0.89351032  0.38977450    -0.44200
C3985       C  0.54015526  0.85599349  0.63879940    -0.00600
C3986       C  0.55536745  0.84453806  0.64733554    -0.12500
C3987       C  0.54407341  0.82062830  0.66350185     0.01600
C3988       C  0.51700618  0.80770952  0.67123668    -0.00700
C3989       C  0.50157772  0.81858800  0.66143925    -0.12500
C3990       C  0.51285102  0.84249488  0.64542531     0.01500
H3991       H  0.57630502  0.85466854  0.64212095     0.14500
H3992       H  0.98121323  0.81074475  0.66943754     0.14500
C3993       C  0.49582095  0.85238575  0.63544095     0.36100
C3994       C  0.56048046  0.80939647  0.67100571     0.36000
N3995       N  0.98457459  0.86569779  0.63556041    -0.44200
N3996       N  0.57356669  0.80029439  0.67691022    -0.44200
C3997       C  0.64489710  0.95224856  0.65010498    -0.00600
C3998       C  0.66779764  0.95760528  0.63387599    -0.12500
C3999       C  0.69274176  0.97016343  0.64766729     0.01600
C4000       C  0.69543474  0.97772317  0.67864474    -0.00700
C4001       C  0.67251908  0.97138867  0.69534294    -0.12500
C4002       C  0.64749442  0.95893226  0.68152916     0.01500
H4003       H  0.66640486  0.95242762  0.60996503     0.14500
H4004       H  0.67589607  0.47600293  0.71902048     0.14500
C4005       C  0.62517825  0.95404649  0.70026337     0.36100
C4006       C  0.71515965  0.97474962  0.62934724     0.36000
N4007       N  0.60737569  0.95021471  0.71536944    -0.44200
N4008       N  0.73309468  0.97841630  0.61461397    -0.44200
C4009       C  0.99577826  0.93168601  0.61168241    -0.00600
C4010       C  0.98063242  0.92547416  0.58502564    -0.12500
C4011       C  0.95680389  0.92548542  0.58443596     0.01600
C4012       C  0.94764961  0.93219423  0.61094998    -0.00700
C4013       C  0.96119091  0.93546092  0.63841085    -0.12500
C4014       C  0.98489867  0.93488214  0.63910210     0.01500
H4015       H  0.98785933  0.92144934  0.56406938     0.14500
H4016       H  0.95390795  0.93965766  0.65919231     0.14500
C4017       C  0.99747191  0.93794721  0.66819244     0.36100
C4018       C  0.94260636  0.91881468  0.55598684     0.36000
N4019       N  0.00691323  0.93982315  0.69184159    -0.44200
N4020       N  0.93175894  0.91336409  0.53284293    -0.44200
C4021       C  0.63477791  0.98596696  0.52079459    -0.00600
C4022       C  0.63362859  0.97515105  0.49188247    -0.12500
C4023       C  0.64109179  0.99134825  0.46598026     0.01600
C4024       C  0.65084532  0.51833487  0.47022453    -0.00700
C4025       C  0.65797364  0.52961075  0.49939616    -0.12500
C4026       C  0.65025200  0.51330946  0.52519304     0.01500
H4027       H  0.62392552  0.95381361  0.48906914     0.14500
H4028       H  0.66665614  0.55087051  0.50227272     0.14500
C4029       C  0.65617386  0.52537307  0.55502708     0.36100
C4030       C  0.63713106  0.97932874  0.43625160     0.36000
N4031       N  0.66118907  0.53491504  0.57899590    -0.44200
N4032       N  0.63401799  0.96987230  0.41232836    -0.44200
C4033       C  0.99459282  0.87650413  0.46448489    -0.00600
C4034       C  0.51714600  0.89657790  0.45680080    -0.12500
C4035       C  0.53751971  0.90665214  0.47800527     0.01600
C4036       C  0.53387401  0.89436824  0.50667125    -0.00700
C4037       C  0.01158191  0.87244192  0.51380585    -0.12500
C4038       C  0.99118299  0.86239024  0.49174900     0.01500
H4039       H  0.51972818  0.90757347  0.43599897     0.14500
H4040       H  0.00822689  0.86246505  0.53551262     0.14500
C4041       C  0.96616310  0.83936599  0.49890060     0.36100
C4042       C  0.56088077  0.93129578  0.47043534     0.36000
N4043       N  0.94602898  0.82097755  0.50473246    -0.44200
N4044       N  0.57887131  0.95134970  0.46356371    -0.44200
C4045       C  0.69463753  0.70598602  0.67732146    -0.00600
C4046       C  0.68076082  0.67831761  0.67892405    -0.12500
C4047       C  0.65549505  0.66355340  0.66682051     0.01600
C4048       C  0.64353087  0.67657689  0.65224532    -0.00700
C4049       C  0.65739546  0.70449850  0.65101187    -0.12500
C4050       C  0.68277449  0.71928697  0.66370844     0.01500
H4051       H  0.69001897  0.66810084  0.68935344     0.14500
H4052       H  0.64835935  0.71477584  0.64032458     0.14500
C4053       C  0.69657429  0.74782336  0.66160552     0.36100
C4054       C  0.64295224  0.63504979  0.66919141     0.36000
N4055       N  0.70763848  0.77071594  0.65999765    -0.44200
N4056       N  0.63319182  0.61228429  0.67156859    -0.44200
C4057       C  0.54796327  0.68381541  0.65468592    -0.00600
C4058       C  0.54118596  0.69919826  0.63621367    -0.12500
C4059       C  0.52980588  0.71334102  0.64865334     0.01600
C4060       C  0.52507208  0.71236526  0.68029238    -0.00700
C4061       C  0.53325828  0.69837826  0.69896007    -0.12500
C4062       C  0.54436895  0.68403760  0.68665846     0.01500
H4063       H  0.54420485  0.69976393  0.61182089     0.14500
H4064       H  0.52991514  0.69766826  0.72330786     0.14500
C4065       C  0.55085107  0.66912962  0.70773155     0.36100
C4066       C  0.03058877  0.73444272  0.62930699     0.36000
N4067       N  0.55583885  0.65710220  0.72470542    -0.44200
N4068       N  0.02894521  0.74963282  0.61389051    -0.44200
C4069       C  0.98551050  0.56298038  0.65345988    -0.00600
C4070       C  0.96498926  0.56410381  0.63858793    -0.12500
C4071       C  0.94003940  0.54149917  0.63608144     0.01600
C4072       C  0.93550824  0.51746958  0.64896722    -0.00700
C4073       C  0.95469829  0.51760348  0.66824530    -0.12500
C4074       C  0.97977743  0.54027458  0.67048431     0.01500
H4075       H  0.96930702  0.58176036  0.62618389     0.14500
H4076       H  0.95125645  0.49923412  0.67853678     0.14500
C4077       C  0.49907596  0.53892227  0.68630306     0.36100
C4078       C  0.92019354  0.54278790  0.61789072     0.36000
N4079       N  0.51498895  0.53801630  0.70103608    -0.44200
N4080       N  0.90433502  0.54410453  0.60350425    -0.44200
C4081       C  0.58331723  0.56080739  0.63700216    -0.00600
C4082       C  0.57100772  0.54084208  0.65891764    -0.12500
C4083       C  0.57538427  0.51925105  0.65912901     0.01600
C4084       C  0.59110819  0.51712804  0.63621997    -0.00700
C4085       C  0.60651567  0.53906775  0.61769185    -0.12500
C4086       C  0.60348791  0.56135324  0.61892116     0.01500
H4087       H  0.55664188  0.54107418  0.67424280     0.14500
H4088       H  0.61951358  0.53804981  0.60082910     0.14500
C4089       C  0.62159805  0.58476947  0.60222693     0.36100
C4090       C  0.55749723  0.99615905  0.67812978     0.36000
N4091       N  0.63677313  0.60389513  0.58984257    -0.44200
N4092       N  0.54610877  0.97919008  0.69534106    -0.44200
C4093       C  0.60908409  0.61859970  0.52893926    -0.00600
C4094       C  0.60631355  0.59339041  0.53074354    -0.12500
C4095       C  0.61778923  0.58456049  0.50949915     0.01600
C4096       C  0.63139864  0.60056396  0.48409011    -0.00700
C4097       C  0.63566847  0.62663606  0.48302629    -0.12500
C4098       C  0.62471168  0.63580730  0.50546301     0.01500
H4099       H  0.59419927  0.57994617  0.54859227     0.14500
H4100       H  0.64585918  0.63910858  0.46369043     0.14500
C4101       C  0.62758943  0.66177000  0.50241308     0.36100
C4102       C  0.61351234  0.55806923  0.51372799     0.36000
N4103       N  0.62976308  0.68255803  0.50003969    -0.44200
N4104       N  0.60942727  0.53667056  0.51734838    -0.44200
C4105       C  0.96185943  0.63977743  0.34605567    -0.00600
C4106       C  0.96798087  0.66260426  0.36306723    -0.12500
C4107       C  0.97937281  0.68766144  0.34938440     0.01600
C4108       C  0.98513789  0.69045376  0.31782107    -0.00700
C4109       C  0.97823576  0.66759989  0.30060619    -0.12500
C4110       C  0.96674393  0.64253494  0.31417149     0.01500
H4111       H  0.96397855  0.66097453  0.38731294     0.14500
H4112       H  0.98246207  0.66934824  0.27640158     0.14500
C4113       C  0.96037793  0.62025103  0.29439674     0.36100
C4114       C  0.49044504  0.71036519  0.37236981     0.36000
N4115       N  0.95529633  0.60247518  0.27844692    -0.44200
N4116       N  0.49696740  0.72832390  0.38849907    -0.44200
C4117       C  0.86199315  0.54283658  0.34335109    -0.00600
C4118       C  0.86113010  0.54446545  0.31161080    -0.12500
C4119       C  0.83696738  0.53329979  0.29632456     0.01600
C4120       C  0.81324244  0.51980250  0.31303420    -0.00700
C4121       C  0.81415881  0.51850877  0.34479811    -0.12500
C4122       C  0.83828446  0.53007863  0.36009680     0.01500
H4123       H  0.87941210  0.55420516  0.29873743     0.14500
H4124       H  0.79592495  0.50815192  0.35766998     0.14500
C4125       C  0.83800308  0.52715686  0.39270860     0.36100
C4126       C  0.83718753  0.53472330  0.26351797     0.36000
N4127       N  0.83721489  0.52448944  0.41882900    -0.44200
N4128       N  0.83778209  0.03657192  0.23738718    -0.44200
C4129       C  0.91952354  0.97940512  0.36324218    -0.00600
C4130       C  0.93479126  0.97895026  0.33861529    -0.12500
C4131       C  0.93734810  0.95667612  0.33293331     0.01600
C4132       C  0.92451735  0.93448041  0.35195094    -0.00700
C4133       C  0.90655329  0.93350657  0.37379981    -0.12500
C4134       C  0.90374656  0.95568090  0.37938694     0.01500
H4135       H  0.94571846  0.49580667  0.32525310     0.14500
H4136       H  0.89622711  0.91610871  0.38809747     0.14500
C4137       C  0.88486663  0.95362272  0.40192409     0.36100
C4138       C  0.95467456  0.95760234  0.30892627     0.36000
N4139       N  0.86930823  0.95165820  0.41959597    -0.44200
N4140       N  0.96832116  0.95812344  0.28951305    -0.44200
C4141       C  0.98026365  0.60654066  0.47919093    -0.00600
C4142       C  0.97006085  0.60434531  0.50852779    -0.12500
C4143       C  0.48624281  0.61347834  0.53355762     0.01600
C4144       C  0.51355890  0.62388752  0.52905011    -0.00700
C4145       C  0.52346041  0.62909838  0.49916274    -0.12500
C4146       C  0.00782364  0.61995700  0.47498104     0.01500
H4147       H  0.94897679  0.59456928  0.51182365     0.14500
H4148       H  0.54451149  0.63785022  0.49528479     0.14500
C4149       C  0.01908170  0.62519703  0.44481576     0.36100
C4150       C  0.47551683  0.61237407  0.56338467     0.36000
N4151       N  0.02792257  0.62969205  0.42053960    -0.44200
N4152       N  0.46663440  0.61237811  0.58690081    -0.44200
C4153       C  0.86016882  0.98664389  0.52624621    -0.00600
C4154       C  0.87190008  0.01417999  0.53046114    -0.12500
C4155       C  0.87863143  0.53091181  0.50525718     0.01600
C4156       C  0.87521138  0.52037773  0.47569380    -0.00700
C4157       C  0.86007517  0.99334911  0.47164867    -0.12500
C4158       C  0.85174970  0.97615648  0.49665361     0.01500
H4159       H  0.87726565  0.02246647  0.55314067     0.14500
H4160       H  0.85675479  0.98526558  0.44879191     0.14500
C4161       C  0.83760195  0.94797886  0.49080246     0.36100
C4162       C  0.89077429  0.55911717  0.51014471     0.36000
N4163       N  0.82621433  0.92540171  0.48605722    -0.44200
N4164       N  0.89983001  0.58167694  0.51401362    -0.44200
C4165       C  0.51314838  0.57073875  0.37838299    -0.00600
C4166       C  0.52667895  0.57552175  0.40603568    -0.12500
C4167       C  0.55005347  0.57473982  0.40816863     0.01600
C4168       C  0.56046284  0.56894584  0.38202767    -0.00700
C4169       C  0.54804075  0.56637711  0.35374923    -0.12500
C4170       C  0.52437465  0.56702164  0.35179417     0.01500
H4171       H  0.51802112  0.57831684  0.42658775     0.14500
H4172       H  0.55583425  0.56213897  0.33343883     0.14500
C4173       C  0.01093675  0.56004254  0.32194748     0.36100
C4174       C  0.56204225  0.57890472  0.43788712     0.36000
N4175       N  0.00006389  0.55584852  0.29885283    -0.44200
N4176       N  0.57122711  0.58206165  0.46190413    -0.44200
loop_ 
_geom_bond_atom_site_label_1 
_geom_bond_atom_site_label_2 
_geom_bond_distance 
_geom_bond_site_symmetry_2 
_ccdc_geom_bond_type 
O1           C16   1.257       .  A
O1           Al9   1.915       .  S
C2           O12   1.265       .  A
C2            O3   1.261       .  A
C2         C3121   1.469       .  S
O3           Al5   1.890       .  S
O4            C6   1.259       .  A
O4           Al5   1.883       .  S
Al5          O13   1.908       .  S
Al5          O15   1.880       .  S
Al5          O14   1.779       .  S
C6           O19   1.266       .  A
C6         C1009   1.478       .  S
O7           C17   1.258       .  A
O7           Al9   1.911       .  S
O8           C21   1.262       .  A
O8          Al18   1.876       .  S
Al9          O22   1.930       .  S
Al9          O19   1.936       .  S
Al9          O14   1.796       .  S
O10          C17   1.251       .  A
O10         Al18   1.879       .  S
O11          C20   1.258       .  A
O11         Al18   1.900       .  S
O12         Al18   1.914       .  S
O13          C20   1.261       .  A
O14         Al18   1.796       .  S
O15          C16   1.253       .  A
C16        C1024   1.475       .  S
C17         C973   1.490       .  S
C20        C2041   1.481   1_545  S
C21          O22   1.270       .  A
C21         C985   1.471       .  S
O23          C38   1.266       .  A
O23         Al31   1.934       .  S
C24          O34   1.256       .  A
C24          O25   1.259       .  A
C24        C3025   1.467   1_455  S
O25         Al27   1.906       .  S
O26          C28   1.264       .  A
O26         Al27   1.900       .  S
Al27         O35   1.886       .  S
Al27         O37   1.903       .  S
Al27         O36   1.765       .  S
C28          O41   1.268       .  A
C28        C1012   1.478       .  S
O29          C39   1.266       .  A
O29         Al31   1.908       .  S
O30          C43   1.253       .  A
O30         Al40   1.858       .  S
Al31         O44   1.932       .  S
Al31         O41   1.939       .  S
Al31         O36   1.787       .  S
O32          C39   1.261       .  A
O32         Al40   1.896       .  S
O33          C42   1.265       .  A
O33         Al40   1.932       .  S
O34         Al40   1.904       .  S
O35          C42   1.262       .  A
O36         Al40   1.783       .  S
O37          C38   1.260       .  A
C38         C961   1.485       .  S
C39         C925   1.489       .  S
C42         C949   1.473       .  S
C43          O44   1.265       .  A
C43         C916   1.480       .  S
O45          C60   1.266       .  A
O45         Al53   1.935       .  S
C46          O56   1.256       .  A
C46          O47   1.256       .  A
C46        C1996   1.466       .  S
O47         Al49   1.885       .  S
O48          C50   1.260       .  A
O48         Al49   1.891       .  S
Al49         O57   1.877       .  S
Al49         O59   1.905       .  S
Al49         O58   1.765       .  S
C50          O63   1.267       .  A
C50         C889   1.480       .  S
O51          C61   1.265       .  A
O51         Al53   1.891       .  S
O52          C65   1.254       .  A
O52         Al62   1.873       .  S
Al53         O66   1.914       .  S
Al53         O63   1.943       .  S
Al53         O58   1.786       .  S
O54          C61   1.265       .  A
O54         Al62   1.914       .  S
O55          C64   1.265       .  A
O55         Al62   1.924       .  S
O56         Al62   1.903       .  S
O57          C64   1.262       .  A
O58         Al62   1.787       .  S
O59          C60   1.262       .  A
C60         C904   1.488       .  S
C61         C865   1.490       .  S
C64        C2965   1.485   1_455  S
C65          O66   1.260       .  A
C65         C853   1.473       .  S
O67          C82   1.268       .  A
O67         Al75   1.940       .  S
C68          O78   1.254       .  A
C68          O69   1.252       .  A
C68        C1885   1.471   1_545  S
O69         Al71   1.880       .  S
O70          C72   1.260       .  A
O70         Al71   1.895       .  S
Al71         O79   1.879       .  S
Al71         O81   1.895       .  S
Al71         O80   1.774       .  S
C72          O85   1.265       .  A
C72         C892   1.481       .  S
O73          C83   1.268       .  A
O73         Al75   1.903       .  S
O74          C87   1.252       .  A
O74         Al84   1.880       .  S
Al75         O88   1.915       .  S
Al75         O85   1.937       .  S
Al75         O80   1.796       .  S
O76          C83   1.266       .  A
O76         Al84   1.910       .  S
O77          C86   1.266       .  A
O77         Al84   1.920       .  S
O78         Al84   1.906       .  S
O79          C86   1.261       .  A
O80         Al84   1.791       .  S
O81          C82   1.261       .  A
C82         C964   1.493       .  S
C83         C832   1.492       .  S
C86        C1036   1.484       .  S
C87          O88   1.258       .  A
C87         C817   1.485       .  S
O89         C104   1.262       .  A
O89         Al97   1.938       .  S
C90         O100   1.259       .  A
C90          O91   1.259       .  A
C90        C1000   1.459       .  S
O91         Al93   1.904       .  S
O92          C94   1.261       .  A
O92         Al93   1.862       .  S
Al93        O101   1.890       .  S
Al93        O103   1.884       .  S
Al93        O102   1.766       .  S
C94         O107   1.273       .  A
C94         C805   1.495       .  S
O95         C105   1.264       .  A
O95         Al97   1.921       .  S
O96         C109   1.259       .  A
O96        Al106   1.863       .  S
Al97        O110   1.934       .  S
Al97        O107   1.960       .  S
Al97        O102   1.780       .  S
O98         C105   1.260       .  A
O98        Al106   1.913       .  S
O99         C108   1.270       .  A
O99        Al106   1.955       .  S
O100       Al106   1.906       .  S
O101        C108   1.261       .  A
O102       Al106   1.785       .  S
O103        C104   1.254       .  A
C104        C901   1.485       .  S
C105        C784   1.496       .  S
C108       C2932   1.479       .  S
C109        O110   1.270       .  A
C109        C796   1.463       .  S
O111        C126   1.265       .  A
O111       Al119   1.943       .  S
C112        O122   1.267       .  A
C112        O113   1.259       .  A
C112        C880   1.481       .  S
O113       Al115   1.868       .  S
O114        C116   1.263       .  A
O114       Al115   1.898       .  S
Al115       O123   1.876       .  S
Al115       O125   1.899       .  S
Al115       O124   1.772       .  S
C116        O129   1.269       .  A
C116        C808   1.486       .  S
O117        C127   1.259       .  A
O117       Al119   1.923       .  S
O118        C131   1.269       .  A
O118       Al128   1.923       .  S
Al119       O132   1.865       .  S
Al119       O129   1.926       .  S
Al119       O124   1.793       .  S
O120        C127   1.252       .  A
O120       Al128   1.880       .  S
O121        C130   1.253       .  A
O121       Al128   1.904       .  S
O122       Al128   1.923       .  S
O123        C130   1.252       .  A
O124       Al128   1.792       .  S
O125        C126   1.259       .  A
C126       C1021   1.488       .  S
C127        C760   1.494       .  S
C130       C1984   1.470       .  S
C131        O132   1.263       .  A
C131        C769   1.467       .  S
O133       C1192   1.261       .  A
O133       Al141   1.925   1_565  S
C134        O144   1.260       .  A
C134        O135   1.252       .  A
C134        C733   1.475       .  S
O135       Al137   1.866       .  S
O136        C138   1.260       .  A
O136       Al137   1.874       .  S
Al137       O145   1.883       .  S
Al137       O147   1.907       .  S
Al137       O146   1.770       .  S
C138        O151   1.269       .  A
C138        C745   1.468       .  S
O139        C149   1.266       .  A
O139       Al141   1.902       .  S
O140       C1197   1.257       .  A
O140       Al150   1.885       .  S
Al141       O154   1.897       .  S
Al141      O1195   1.940   1_545  S
Al141      O1190   1.791   1_545  S
O142       C1193   1.263       .  A
O142       Al150   1.899       .  S
O143        C152   1.268       .  A
O143       Al150   1.928       .  S
O144       Al150   1.933       .  S
O145        C152   1.266       .  A
O146       Al150   1.789       .  S
O146      Al1185   1.789       .  S
O147        C148   1.256       .  A
C148       O1177   1.260       .  A
C148        C721   1.480       .  S
C149       O1186   1.265   1_545  A
C149        C829   1.486       .  S
O151      Al1185   1.946       .  S
C152        C709   1.488       .  S
C153        O154   1.257       .  A
C153       O1184   1.258   1_545  A
C153        C988   1.471       .  S
O155        C170   1.266       .  A
O155       Al163   1.952       .  S
C156        O166   1.253       .  A
C156        O157   1.251       .  A
C156        C697   1.466       .  S
O157       Al159   1.883       .  S
O158        C160   1.262       .  A
O158       Al159   1.884       .  S
Al159       O167   1.875       .  S
Al159       O169   1.908       .  S
Al159       O168   1.774       .  S
C160        O173   1.269       .  A
C160        C748   1.473       .  S
O161        C171   1.267       .  A
O161       Al163   1.912       .  S
O162        C175   1.255       .  A
O162       Al172   1.875       .  S
Al163       O176   1.898       .  S
Al163       O173   1.944       .  S
Al163       O168   1.785       .  S
O164        C171   1.267       .  A
O164       Al172   1.914       .  S
O165        C174   1.272       .  A
O165       Al172   1.942       .  S
O166       Al172   1.904       .  S
O167        C174   1.265       .  A
O168       Al172   1.786       .  S
O169        C170   1.257       .  A
C170        C685   1.491       .  S
C171        C664   1.501       .  S
C174        C673   1.491       .  S
C175        O176   1.257       .  A
C175        C652   1.472       .  S
O177        C192   1.266       .  A
O177      Al2273   1.924       .  S
C178        O188   1.255       .  A
C178        O179   1.258       .  A
C178        C625   1.468       .  S
O179       Al181   1.898       .  S
O180        C182   1.255       .  A
O180       Al181   1.880       .  S
Al181       O189   1.880       .  S
Al181       O191   1.927       .  S
Al181       O190   1.771       .  S
C182        O195   1.263       .  A
C182        C640   1.475       .  S
O183        C193   1.265       .  A
O183       Al185   1.892       .  S
O184       C2285   1.256       .  A
O184       Al194   1.877       .  S
Al185       O198   1.908       .  S
Al185      O2265   1.926       .  S
Al185      O2283   1.937       .  S
Al185      O2278   1.790       .  S
O186       C2281   1.267   1_455  A
O186       Al194   1.919       .  S
O187        C196   1.264       .  A
O187       Al194   1.929       .  S
O188       Al194   1.897       .  S
O189        C196   1.259       .  A
O190       Al194   1.787       .  S
O190      Al2273   1.792       .  S
O191        C192   1.266       .  A
C192        C688   1.484       .  S
C193       O2274   1.268       .  A
C193        C976   1.475       .  S
O195      Al2273   1.945       .  S
C196        C736   1.471       .  S
C197        O198   1.259       .  A
C197       O2272   1.257       .  A
C197        C793   1.478       .  S
O199        C214   1.259       .  A
O199       Al207   1.928       .  S
C200        O210   1.265       .  A
C200        O201   1.259       .  A
C200        C676   1.479       .  S
O201       Al203   1.896       .  S
O202        C204   1.259       .  A
O202       Al203   1.874       .  S
Al203       O211   1.909       .  S
Al203       O213   1.889       .  S
Al203       O212   1.777       .  S
C204        O217   1.266       .  A
C204        C637   1.472       .  S
O205        C215   1.256       .  A
O205       Al207   1.902       .  S
O206        C219   1.262       .  A
O206       Al216   1.879       .  S
Al207       O220   1.921       .  S
Al207       O217   1.934       .  S
Al207       O212   1.797       .  S
O208        C215   1.256       .  A
O208       Al216   1.897       .  S
O209        C218   1.262       .  A
O209       Al216   1.911       .  S
O210       Al216   1.923       .  S
O211        C218   1.264       .  A
O212       Al216   1.792       .  S
O213        C214   1.254       .  A
C214        C613   1.480       .  S
C215        C577   1.478       .  S
C218        C601   1.481       .  S
C219        O220   1.268       .  A
C219        C589   1.477       .  S
O221        C236   1.260       .  A
O221       Al229   1.932       .  S
C222        O232   1.257       .  A
C222        O223   1.259       .  A
C222        C604   1.464       .  S
O223       Al225   1.911       .  S
O224        C226   1.260       .  A
O224       Al225   1.857       .  S
Al225       O233   1.874       .  S
Al225       O235   1.899       .  S
Al225       O234   1.768       .  S
C226        O239   1.275       .  A
C226        C565   1.498       .  S
O227        C237   1.260       .  A
O227       Al229   1.894       .  S
O228        C241   1.260       .  A
O228       Al238   1.870       .  S
Al229       O242   1.932       .  S
Al229       O239   1.975       .  S
Al229       O234   1.780       .  S
O230        C237   1.260       .  A
O230       Al238   1.904       .  S
O231        C240   1.271       .  A
O231       Al238   1.952       .  S
O232       Al238   1.906       .  S
O233        C240   1.260       .  A
O234       Al238   1.788       .  S
O235        C236   1.256       .  A
C236        C724   1.483       .  S
C237        C553   1.489       .  S
C240        C700   1.480       .  S
C241        O242   1.269       .  A
C241        C541   1.469       .  S
O243        C258   1.263       .  A
O243       Al251   1.953       .  S
C244        O254   1.268       .  A
C244        O245   1.257       .  A
C244        C712   1.485       .  S
O245       Al247   1.859       .  S
O246        C248   1.265       .  A
O246       Al247   1.902       .  S
Al247       O255   1.869       .  S
Al247       O257   1.892       .  S
Al247       O256   1.772       .  S
C248        O261   1.271       .  A
C248        C568   1.491       .  S
O249        C259   1.259       .  A
O249       Al251   1.928       .  S
O250        C263   1.271       .  A
O250       Al260   1.924       .  S
Al251       O264   1.893       .  S
Al251       O261   1.937       .  S
Al251       O256   1.797       .  S
O252        C259   1.253       .  A
O252       Al260   1.891       .  S
O253        C262   1.253       .  A
O253       Al260   1.904       .  S
O254       Al260   1.931       .  S
O255        C262   1.250       .  A
O256       Al260   1.798       .  S
O257        C258   1.255       .  A
C258        C616   1.491       .  S
C259        C781   1.499       .  S
C262        C628   1.468       .  S
C263        O264   1.269       .  A
C263        C820   1.484       .  S
O265        C280   1.263       .  A
O265       Al273   1.923       .  S
C266        O276   1.252       .  A
C266        O267   1.263       .  A
C266        C520   1.460       .  S
O267       Al269   1.922       .  S
O268        C270   1.252       .  A
O268       Al269   1.852       .  S
Al269       O277   1.844       .  S
Al269       O279   1.928       .  S
Al269       O278   1.756       .  S
C270        O283   1.276       .  A
C270        C529   1.502       .  S
O271        C281   1.267       .  A
O271       Al273   1.901       .  S
O272        C285   1.256       .  A
O272       Al282   1.864       .  S
Al273       O286   1.949       .  S
Al273       O283   1.990       .  S
Al273       O278   1.779       .  S
O274        C281   1.270       .  A
O274       Al282   1.939       .  S
O275        C284   1.273       .  A
O275       Al282   1.976       .  S
O276       Al282   1.880       .  S
O277        C284   1.251       .  A
O278       Al282   1.779       .  S
O279        C280   1.264       .  A
C280        C508   1.482       .  S
C281        C580   1.498       .  S
C284        C493   1.493       .  S
C285        O286   1.269       .  A
C285        C544   1.475       .  S
O287       C2390   1.261       .  A
O287       Al295   1.929   1_655  S
C288        O298   1.263       .  A
C288        O289   1.258       .  A
C288        C460   1.478       .  S
O289       Al291   1.893       .  S
O290        C292   1.256       .  A
O290       Al291   1.869       .  S
Al291       O299   1.887       .  S
Al291       O301   1.900       .  S
Al291       O300   1.765       .  S
C292       O2393   1.270       .  A
C292        C532   1.472       .  S
O293        C303   1.259       .  A
O293       Al295   1.885       .  S
O294       C2395   1.260       .  A
O294       Al304   1.878       .  S
Al295       O308   1.919       .  S
Al295       O305   1.945   1_455  S
Al295      O2388   1.789   1_455  S
O296       C2391   1.261       .  A
O296       Al304   1.906       .  S
O297        C306   1.267       .  A
O297       Al304   1.927       .  S
O298       Al304   1.925       .  S
O299        C306   1.262       .  A
O300       Al304   1.784       .  S
O300      Al2383   1.789       .  S
O301        C302   1.257       .  A
C302       O2375   1.261       .  A
C302        C484   1.475       .  S
C303       O2384   1.261   1_455  A
C303        C928   1.476       .  S
O305       C2380   1.267       .  A
C306        C469   1.487       .  S
C307        O308   1.266       .  A
C307       O2382   1.259   1_455  A
C307        C856   1.472       .  S
O309        C324   1.257       .  A
O309       Al317   1.910       .  S
C310        O320   1.267       .  A
C310        O311   1.273       .  A
C310        C433   1.470       .  S
O311       Al313   1.935       .  S
O312        C314   1.256       .  A
O312       Al313   1.848       .  S
Al313       O321   1.888       .  S
Al313       O323   1.878       .  S
Al313       O322   1.766       .  S
C314        O327   1.267       .  A
C314        C445   1.492       .  S
O315        C325   1.254       .  A
O315       Al317   1.913       .  S
O316        C329   1.269       .  A
O316       Al326   1.869       .  S
Al317       O330   1.952       .  S
Al317       O327   1.939       .  S
Al317       O322   1.788       .  S
O318        C325   1.248       .  A
O318       Al326   1.878       .  S
O319        C328   1.254       .  A
O319       Al326   1.923       .  S
O320       Al326   1.903       .  S
O321        C328   1.250       .  A
O322       Al326   1.795       .  S
O323        C324   1.253       .  A
C324        C481   1.477       .  S
C325        C556   1.491       .  S
C328        C517   1.476       .  S
C329        O330   1.280       .  A
C329        C649   1.474       .  S
O331        C346   1.262       .  A
O331       Al339   1.925       .  S
C332        O342   1.262       .  A
C332        O333   1.261       .  A
C332        C496   1.474       .  S
O333       Al335   1.890       .  S
O334        C336   1.259       .  A
O334       Al335   1.880       .  S
Al335       O343   1.896       .  S
Al335       O345   1.896       .  S
Al335       O344   1.766       .  S
C336        O349   1.266       .  A
C336        C424   1.473       .  S
O337        C347   1.263       .  A
O337       Al339   1.908       .  S
O338        C351   1.260       .  A
O338       Al348   1.879       .  S
Al339       O352   1.921       .  S
Al339       O349   1.938       .  S
Al339       O344   1.787       .  S
O340        C347   1.263       .  A
O340       Al348   1.916       .  S
O341        C350   1.265       .  A
O341       Al348   1.929       .  S
O342       Al348   1.920       .  S
O343        C350   1.261       .  A
O344       Al348   1.785       .  S
O345        C346   1.257       .  A
C346        C409   1.476       .  S
C347        C661   1.492       .  S
C350        C436   1.486       .  S
C351        O352   1.265       .  A
C351        C592   1.469       .  S
O353       C1412   1.263       .  A
O353       Al361   1.917       .  S
C354        O364   1.254       .  A
C354        O355   1.260       .  A
C354        C397   1.465       .  S
O355       Al357   1.907       .  S
O356        C358   1.257       .  A
O356       Al357   1.883       .  S
Al357       O365   1.865       .  S
Al357       O367   1.934       .  S
Al357       O366   1.762       .  S
C358       O1415   1.267       .  A
C358        C421   1.472       .  S
O359        C369   1.263       .  A
O359       Al361   1.885       .  S
O360       C1417   1.253   1_545  A
O360       Al370   1.863       .  S
Al361       O374   1.921       .  S
Al361       O371   1.943       .  S
Al361      O1410   1.787       .  S
O362       C1413   1.270   1_545  A
O362       Al370   1.930       .  S
O363        C372   1.268       .  A
O363       Al370   1.949       .  S
O364       Al370   1.890       .  S
O365        C372   1.260       .  A
O366       Al370   1.780       .  S
O366      Al1405   1.786       .  S
O367        C368   1.266       .  A
C368       O1397   1.263       .  A
C368        C505   1.481       .  S
C369       O1406   1.269       .  A
C369        C868   1.484       .  S
O371       C1402   1.267       .  A
C372        C457   1.492       .  S
C373        O374   1.262       .  A
C373       O1404   1.253       .  A
C373        C772   1.474       .  S
O375        C390   1.261       .  A
O375       Al383   1.927       .  S
C376        O386   1.264       .  A
C376        O377   1.266       .  A
C376        C472   1.462       .  S
O377       Al379   1.915       .  S
O378        C380   1.255       .  A
O378       Al379   1.855       .  S
Al379       O387   1.878       .  S
Al379       O389   1.882       .  S
Al379       O388   1.762       .  S
C380        O393   1.270       .  A
C380        C448   1.476       .  S
O381        C391   1.261       .  A
O381       Al383   1.916       .  S
O382        C395   1.263       .  A
O382       Al392   1.856       .  S
Al383       O396   1.950       .  S
Al383       O393   1.952       .  S
Al383       O388   1.781       .  S
O384        C391   1.256       .  A
O384       Al392   1.908       .  S
O385        C394   1.264       .  A
O385       Al392   1.947       .  S
O386       Al392   1.902       .  S
O387        C394   1.253       .  A
O388       Al392   1.790       .  S
O389        C390   1.253       .  A
C390        C412   1.477       .  S
C391        C757   1.487       .  S
C394        C400   1.477       .  S
C395        O396   1.275       .  A
C395        C913   1.462       .  S
C397        C398   1.396       .  A
C397        C402   1.408       .  A
C398        C399   1.394       .  A
C398        H403   1.082       .  S
C399        C400   1.413       .  A
C399        C406   1.443       .  S
C400        C401   1.405       .  A
C401        C402   1.402       .  A
C401        H404   1.085       .  S
C402        C405   1.441       .  S
C405        N407   1.156       .  T
C406        N408   1.157       .  T
C409        C410   1.403       .  A
C409        C414   1.409       .  A
C410        C411   1.402       .  A
C410        H415   1.085       .  S
C411        C412   1.410       .  A
C411        C418   1.444       .  S
C412        C413   1.404       .  A
C413        C414   1.407       .  A
C413        H416   1.083       .  S
C414        C417   1.443       .  S
C417        N419   1.157       .  T
C418        N420   1.157       .  T
C421        C422   1.400       .  A
C421        C426   1.412       .  A
C422        C423   1.398       .  A
C422        H427   1.085       .  S
C423        C424   1.411       .  A
C423        C430   1.443       .  S
C424        C425   1.402       .  A
C425        C426   1.402       .  A
C425        H428   1.084       .  S
C426        C429   1.444       .  S
C429        N431   1.157       .  T
C430        N432   1.157       .  T
C433        C434   1.395       .  A
C433        C438   1.407       .  A
C434        C435   1.398       .  A
C434        H439   1.079       .  S
C435        C436   1.417       .  A
C435        C442   1.442   1_556  S
C436        C437   1.407       .  A
C437        C438   1.402       .  A
C437        H440   1.085       .  S
C438        C441   1.442       .  S
C441        N443   1.157       .  T
C442        N444   1.156       .  T
C445        C446   1.407       .  A
C445        C450   1.417       .  A
C446        C447   1.385       .  A
C446        H451   1.085       .  S
C447        C448   1.411       .  A
C447        C454   1.448       .  S
C448        C449   1.405       .  A
C449        C450   1.412       .  A
C449        H452   1.083       .  S
C450        C453   1.441       .  S
C453        N455   1.157       .  T
C454        N456   1.158       .  T
C457        C458   1.404       .  A
C457        C462   1.417       .  A
C458        C459   1.387       .  A
C458        H463   1.085       .  S
C459        C460   1.410       .  A
C459        C466   1.444       .  S
C460        C461   1.406       .  A
C461        C462   1.412       .  A
C461        H464   1.084       .  S
C462        C465   1.442       .  S
C465        N467   1.157       .  T
C466        N468   1.157       .  T
C469        C470   1.412       .  A
C469        C474   1.418       .  A
C470        C471   1.401       .  A
C470        H475   1.084       .  S
C471        C472   1.402       .  A
C471        C478   1.443       .  S
C472        C473   1.398       .  A
C473        C474   1.395       .  A
C473        H476   1.086       .  S
C474        C477   1.444       .  S
C477        N479   1.157       .  T
C478        N480   1.157       .  T
C481        C482   1.402       .  A
C481        C486   1.412       .  A
C482        C483   1.401       .  A
C482        H487   1.085       .  S
C483        C484   1.409       .  A
C483        C490   1.443       .  S
C484        C485   1.403       .  A
C485        C486   1.405       .  A
C485        H488   1.085       .  S
C486        C489   1.444       .  S
C489        N491   1.157       .  T
C490       N2580   1.157       .  T
N492       C2578   1.157       .  T
C493        C494   1.412       .  A
C493        C498   1.425       .  A
C494        C495   1.413       .  A
C494        H499   1.084   1_556  S
C495        C496   1.409       .  A
C495        C502   1.441   1_556  S
C496        C497   1.393       .  A
C497        C498   1.383       .  A
C497        H500   1.086       .  S
C498        C501   1.446       .  S
C501        N503   1.157       .  T
C502        N504   1.157       .  T
C505        C506   1.403       .  A
C505        C510   1.410       .  A
C506        C507   1.408       .  A
C506        H511   1.085       .  S
C507        C508   1.413       .  A
C507        C514   1.445       .  S
C508        C509   1.403       .  A
C509        C510   1.405       .  A
C509        H512   1.084       .  S
C510        C513   1.443       .  S
C513        N515   1.157       .  T
C514        N516   1.157       .  T
C517        C518   1.405       .  A
C517        C522   1.414   1_556  A
C518        C519   1.397       .  A
C518        H523   1.085       .  S
C519        C520   1.404       .  A
C519        C526   1.445       .  S
C520        C521   1.398       .  A
C521        C522   1.399   1_556  A
C521        H524   1.085   1_556  S
C522        C525   1.442       .  S
C525        N527   1.157       .  T
C526        N528   1.157       .  T
C529        C530   1.412       .  A
C529        C534   1.428       .  A
C530        C531   1.414       .  A
C530        H535   1.084       .  S
C531        C532   1.410       .  A
C531        C538   1.442       .  S
C532        C533   1.391       .  A
C533        C534   1.390       .  A
C533        H536   1.086       .  S
C534        C537   1.446       .  S
C537        N539   1.157       .  T
C538        N540   1.157       .  T
C541        C542   1.396       .  A
C541        C546   1.413   1_554  A
C542       C1587   1.396       .  A
C542        H547   1.085       .  S
C543        C544   1.417   1_554  A
C543       C1586   1.397   1_545  A
C543        C550   1.445       .  S
C544        C545   1.401       .  A
C545       C1590   1.402   1_545  A
C545        H548   1.085       .  S
C546       C1589   1.403       .  A
C546        C549   1.444       .  S
C549        N551   1.157       .  T
C550        N552   1.157       .  T
C553        C554   1.409   1_554  A
C553        C558   1.413       .  A
C554        C555   1.403       .  A
C554        H559   1.084       .  S
C555        C556   1.413       .  A
C555        C562   1.444       .  S
C556        C557   1.410   1_556  A
C557        C558   1.397       .  A
C557        H560   1.085       .  S
C558        C561   1.446       .  S
C561        N563   1.158       .  T
C562        N564   1.157       .  T
C565        C566   1.405       .  A
C565        C570   1.416       .  A
C566        C567   1.389       .  A
C566        H571   1.083       .  S
C567        C568   1.415       .  A
C567        C574   1.446       .  S
C568        C569   1.410       .  A
C569        C570   1.417       .  A
C569        H572   1.084       .  S
C570        C573   1.442       .  S
C573        N575   1.157       .  T
C574        N576   1.157       .  T
C577        C578   1.400       .  A
C577        C582   1.411   1_554  A
C578       C2667   1.403   1_455  A
C578        H583   1.085       .  S
C579        C580   1.420   1_554  A
C579       C2666   1.406       .  A
C579        C586   1.444       .  S
C580       C2669   1.408       .  A
C581        C582   1.401   1_655  A
C581       C2668   1.407       .  A
C581        H584   1.084       .  S
C582        C585   1.445       .  S
C585        N587   1.157       .  T
C586        N588   1.157       .  T
C589        C590   1.406       .  A
C589        C594   1.415   1_554  A
C590        C591   1.401   1_554  A
C590        H595   1.085       .  S
C591        C592   1.409       .  A
C591        C598   1.444       .  S
C592        C593   1.400       .  A
C593        C594   1.395       .  A
C593        H596   1.086       .  S
C594        C597   1.444       .  S
C597        N599   1.157       .  T
C598        N600   1.157       .  T
C601        C602   1.408       .  A
C601        C606   1.411       .  A
C602        C603   1.398       .  A
C602        H607   1.085       .  S
C603        C604   1.405       .  A
C603        C610   1.443   1_554  S
C604        C605   1.400       .  A
C605        C606   1.400       .  A
C605        H608   1.083       .  S
C606        C609   1.440       .  S
C609        N611   1.156       .  T
C610        N612   1.157       .  T
C613        C614   1.403       .  A
C613        C618   1.407       .  A
C614        C615   1.409       .  A
C614        H619   1.082       .  S
C615        C616   1.415       .  A
C615        C622   1.443       .  S
C616        C617   1.404       .  A
C617        C618   1.401       .  A
C617        H620   1.082       .  S
C618        C621   1.441       .  S
C621        N623   1.157       .  T
C622        N624   1.157       .  T
C625        C626   1.399       .  A
C625        C630   1.411       .  A
C626        C627   1.398       .  A
C626        H631   1.082       .  S
C627        C628   1.408       .  A
C627        C634   1.442       .  S
C628        C629   1.402       .  A
C629        C630   1.402       .  A
C629        H632   1.085       .  S
C630        C633   1.444       .  S
C633        N635   1.157       .  T
C634        N636   1.157       .  T
C637        C638   1.398       .  A
C637        C642   1.411       .  A
C638        C639   1.400       .  A
C638        H643   1.077       .  S
C639        C640   1.410       .  A
C639        C646   1.444       .  S
C640        C641   1.403       .  A
C641        C642   1.403       .  A
C641       H2732   1.084       .  S
C642        C645   1.445       .  S
H644       C2729   1.085       .  S
C645       N2735   1.157       .  T
C646        N648   1.157       .  T
N647       C2733   1.157       .  T
C649        C650   1.406   1_556  A
C649       C2742   1.411       .  A
C650       C2739   1.397       .  A
C650        H655   1.085       .  S
C651        C652   1.410       .  A
C651       C2738   1.397   1_455  A
C651       C2746   1.444       .  S
C652        C653   1.405   1_554  A
C653        C654   1.397       .  A
C653        H656   1.085       .  S
C654       C2737   1.408   1_455  A
C654        C657   1.444       .  S
C657        N659   1.157       .  T
C658       C2739   1.444       .  S
C658        N660   1.157       .  T
C661        C662   1.407   1_556  A
C661        C666   1.414   1_545  A
C662       C1707   1.403   1_545  A
C662        H667   1.085       .  S
C663        C664   1.418       .  A
C663       C1706   1.404       .  A
C663        C670   1.444       .  S
C664        C665   1.411   1_554  A
C665       C1710   1.404       .  A
C665        H668   1.084       .  S
C666       C1709   1.404       .  A
C666        C669   1.445       .  S
C669        N671   1.157       .  T
C670        N672   1.157       .  T
C673        C674   1.404       .  A
C673        C678   1.418       .  A
C674        C675   1.391       .  A
C674        H679   1.085       .  S
C675        C676   1.414       .  A
C675        C682   1.445       .  S
C676        C677   1.404       .  A
C677        C678   1.408       .  A
C677        H680   1.084       .  S
C678        C681   1.443   1_554  S
C681        N683   1.157       .  T
C682        N684   1.157       .  T
C685        C686   1.409       .  A
C685        C690   1.415       .  A
C686        C687   1.414       .  A
C686        H691   1.085       .  S
C687        C688   1.411       .  A
C687        C694   1.443       .  S
C688        C689   1.400       .  A
C689        C690   1.401       .  A
C689        H692   1.086       .  S
C690        C693   1.443       .  S
C693        N695   1.157       .  T
C694        N696   1.157   1_455  T
C697        C698   1.396       .  A
C697        C702   1.408       .  A
C698        C699   1.392       .  A
C698        H703   1.082       .  S
C699        C700   1.411       .  A
C699        C706   1.440       .  S
C700        C701   1.405       .  A
C701        C702   1.404       .  A
C701        H704   1.081   1_554  S
C702        C705   1.442   1_554  S
C705        N707   1.157       .  T
C706        N708   1.155       .  T
C709        C710   1.402       .  A
C709        C714   1.419       .  A
C710        C711   1.390       .  A
C710        H715   1.084       .  S
C711        C712   1.416       .  A
C711        C718   1.444       .  S
C712        C713   1.405       .  A
C713        C714   1.406       .  A
C713        H716   1.084       .  S
C714        C717   1.444       .  S
C717        N719   1.158       .  T
C718        N720   1.157       .  T
C721        C722   1.401       .  A
C721        C726   1.410       .  A
C722        C723   1.398       .  A
C722        H727   1.084       .  S
C723        C724   1.410       .  A
C723        C730   1.443       .  S
C724        C725   1.407       .  A
C725        C726   1.412       .  A
C725        H728   1.084       .  S
C726       C1773   1.442       .  S
C729       C1770   1.442   1_545  S
C729        N731   1.157       .  T
C730        N732   1.156       .  T
C733        C734   1.403       .  A
C733        C738   1.410       .  A
C734        C735   1.388       .  A
C734        H739   1.087       .  S
C735        C736   1.408       .  A
C735        C742   1.446       .  S
C736        C737   1.408       .  A
C737        C738   1.412       .  A
C737        H740   1.084       .  S
C738        C741   1.441       .  S
C741        N743   1.157       .  T
C742        N744   1.157       .  T
C745        C746   1.400       .  A
C745        C750   1.410       .  A
C746        C747   1.399       .  A
C746        H751   1.085       .  S
C747        C748   1.411       .  A
C747        C754   1.443       .  S
C748        C749   1.401       .  A
C749        C750   1.400       .  A
C749        H752   1.084       .  S
C750       C1797   1.444       .  S
C753       C1794   1.442       .  S
C753        N755   1.157       .  T
C754        N756   1.157       .  T
C757        C758   1.408       .  A
C757        C762   1.409       .  A
C758        C759   1.405       .  A
C758        H763   1.085       .  S
C759        C760   1.416       .  A
C759        C766   1.444       .  S
C760        C761   1.410       .  A
C761        C762   1.401       .  A
C761        H764   1.084       .  S
C762        C765   1.443       .  S
C765        N767   1.157       .  T
C766        N768   1.157       .  T
C769        C770   1.400       .  A
C769        C774   1.409       .  A
C770        C771   1.388       .  A
C770        H775   1.086       .  S
C771        C772   1.415       .  A
C771        C778   1.446       .  S
C772        C773   1.406       .  A
C773        C774   1.402       .  A
C773        H776   1.084       .  S
C774        C777   1.443       .  S
C777        N779   1.157       .  T
C778        N780   1.157       .  T
C781        C782   1.409       .  A
C781        C786   1.415       .  A
C782        C783   1.406       .  A
C782        H787   1.084       .  S
C783        C784   1.413       .  A
C783        C790   1.444       .  S
C784        C785   1.409       .  A
C785        C786   1.408       .  A
C785        H788   1.085       .  S
C786        C789   1.444       .  S
C789        N791   1.157       .  T
C790        N792   1.157       .  T
C793        C794   1.407       .  A
C793        C798   1.414       .  A
C794        C795   1.398       .  A
C794        H799   1.085       .  S
C795        C796   1.407       .  A
C795        C802   1.444       .  S
C796        C797   1.400       .  A
C797        C798   1.397       .  A
C797        H800   1.085       .  S
C798       C2889   1.444       .  S
C801       C2886   1.444       .  S
C801        N803   1.157       .  T
C802        N804   1.157       .  T
C805        C806   1.406       .  A
C805        C810   1.417       .  A
C806        C807   1.390       .  A
C806        H811   1.085       .  S
C807        C808   1.416       .  A
C807        C814   1.447       .  S
C808        C809   1.407       .  A
C809        C810   1.411       .  A
C809        H812   1.085       .  S
C810        C813   1.442       .  S
C813        N815   1.157       .  T
C814        N816   1.157       .  T
C817        C818   1.405       .  A
C817        C822   1.416       .  A
C818        C819   1.404       .  A
C818        H823   1.085       .  S
C819        C820   1.414       .  A
C819        C826   1.443       .  S
C820        C821   1.404       .  A
C821        C822   1.398       .  A
C821        H824   1.085       .  S
C822        C825   1.445       .  S
C825        N827   1.157       .  T
C826        N828   1.157       .  T
C829        C830   1.403       .  A
C829        C834   1.416       .  A
C830        C831   1.401       .  A
C830       H1879   1.085       .  S
C831        C832   1.419       .  A
C831        C838   1.444       .  S
C832        C833   1.406       .  A
C833        C834   1.401       .  A
C833        H836   1.085       .  S
C834        C837   1.445       .  S
H835       C1874   1.085       .  S
C837        N839   1.157       .  T
C838       N1884   1.157       .  T
N840       C1882   1.157       .  T
C841       C1112   1.471       .  S
C841        C842   1.402       .  A
C841        C846   1.411       .  A
C842        C843   1.400       .  A
C842        H847   1.084       .  S
C843        C844   1.410       .  A
C843        C850   1.444       .  S
C844       C2196   1.475   1_455  S
C844        C845   1.402       .  A
C845        C846   1.402       .  A
C845        H848   1.084       .  S
C846        C849   1.444       .  S
C849       N1895   1.157       .  T
C850        N852   1.157       .  T
N851       C1893   1.157       .  T
C853        C854   1.403       .  A
C853        C858   1.413       .  A
C854        C855   1.398       .  A
C854        H859   1.085       .  S
C855        C856   1.411       .  A
C855        C862   1.444       .  S
C856        C857   1.403       .  A
C857        C858   1.397       .  A
C857       H2948   1.085   1_455  S
C858        C861   1.446   1_455  S
H860       C2945   1.085       .  S
C861       N2951   1.157       .  T
C862        N864   1.157       .  T
N863       C2949   1.157       .  T
C865        C866   1.407       .  A
C865        C870   1.419       .  A
C866        C867   1.398       .  A
C866        H871   1.084       .  S
C867        C868   1.412       .  A
C867        C874   1.444       .  S
C868        C869   1.405       .  A
C869        C870   1.400       .  A
C869       H1916   1.085       .  S
C870        C873   1.445       .  S
H872       C1913   1.085       .  S
C873        N875   1.158       .  T
C874        N876   1.157       .  T
C877       C2152   1.485       .  S
C877        C878   1.403       .  A
C877        C882   1.416       .  A
C878        C879   1.391       .  A
C878        H883   1.085       .  S
C879        C880   1.415       .  A
C879        C886   1.444       .  S
C880        C881   1.405       .  A
C881        C882   1.403       .  A
C881        H884   1.085       .  S
C882        C885   1.442       .  S
C885        N887   1.157       .  T
C886        N888   1.156       .  T
C889        C890   1.403       .  A
C889       C1938   1.411       .  A
C890        C891   1.402       .  A
C890        H895   1.085       .  S
C891       C1936   1.411       .  A
C891        C898   1.444       .  S
C892        C893   1.405       .  A
C892       C1935   1.412   1_545  A
C893        C894   1.402       .  A
C893        H896   1.085       .  S
C894       C1933   1.411   1_545  A
C894        C897   1.444       .  S
C897        N899   1.157       .  T
C898        N900   1.157       .  T
C901        C906   1.411       .  A
C901       C2990   1.398       .  A
C902        C903   1.390       .  A
C902       C2989   1.399   1_455  A
C902        H907   1.084       .  S
C903        C904   1.414       .  A
C903        C910   1.442       .  S
C904       C2993   1.411       .  A
C905        C906   1.417       .  A
C905       C2992   1.412       .  A
C905        H908   1.084       .  S
C906        C909   1.441       .  S
C909        N911   1.157       .  T
C910        N912   1.156       .  T
C913        C914   1.397       .  A
C913        C918   1.406       .  A
C914        C915   1.390       .  A
C914        H919   1.087       .  S
C915        C916   1.418       .  A
C915        C922   1.446       .  S
C916        C917   1.409       .  A
C917        C918   1.404       .  A
C917        H920   1.084       .  S
C918        C921   1.443       .  S
C921        N923   1.157       .  T
C922        N924   1.157       .  T
C925        C926   1.408       .  A
C925        C930   1.421       .  A
C926        C927   1.404       .  A
C926        H931   1.084       .  S
C927        C928   1.412       .  A
C927       C3022   1.444       .  S
C928        C929   1.397       .  A
C929        C930   1.394       .  A
C929        H932   1.084       .  S
C930        C933   1.445       .  S
C933        N935   1.157       .  T
C934       C3015   1.444       .  S
C934        N936   1.157       .  T
C937       C2112   1.467       .  S
C937        C938   1.397       .  A
C937        C942   1.408       .  A
C938        C939   1.398       .  A
C938        H943   1.078       .  S
C939        C940   1.407       .  A
C939        C946   1.442       .  S
C940       C1174   1.469   1_545  S
C940        C941   1.403       .  A
C941        C942   1.402       .  A
C941        H944   1.085   1_545  S
C942       C3033   1.442       .  S
C945       C3030   1.442   1_455  S
C945        N947   1.157       .  T
C946        N948   1.157       .  T
C949        C950   1.402       .  A
C949        C954   1.408       .  A
C950        C951   1.402       .  A
C950        H955   1.081       .  S
C951        C952   1.409       .  A
C951       C2002   1.441       .  S
C952       C1090   1.467   1_545  S
C952        C953   1.401       .  A
C953        C954   1.395       .  A
C953        H956   1.084       .  S
C954        C957   1.442       .  S
C957        N959   1.157       .  T
C958       C1995   1.442       .  S
C958        N960   1.157       .  T
C961        C962   1.399       .  A
C961        C966   1.412       .  A
C962        C963   1.391       .  A
C962        H967   1.086       .  S
C963        C964   1.418       .  A
C963        C970   1.447       .  S
C964        C965   1.411       .  A
C965        C966   1.416       .  A
C965        H968   1.084       .  S
C966        C969   1.442       .  S
C969        N971   1.157       .  T
C970        N972   1.157       .  T
C973        C974   1.407       .  A
C973        C978   1.422       .  A
C974        C975   1.403       .  A
C974        H979   1.085       .  S
C975        C976   1.411       .  A
C975       C3070   1.444       .  S
C976        C977   1.399       .  A
C977        C978   1.397       .  A
C977        H980   1.086       .  S
C978        C981   1.446       .  S
C981        N983   1.158       .  T
C982       C3063   1.444       .  S
C982        N984   1.157       .  T
C985        C986   1.404       .  A
C985        C990   1.410       .  A
C986        C987   1.400       .  A
C986        H991   1.085       .  S
C987        C988   1.412       .  A
C987        C994   1.445       .  S
C988        C989   1.401       .  A
C989        C990   1.397       .  A
C989        H992   1.085       .  S
C990        C993   1.442       .  S
C993        N995   1.157       .  T
C994       N2040   1.157       .  T
N996       C2038   1.157       .  T
C997       C1064   1.480       .  S
C997        C998   1.409       .  A
C997       C1002   1.411       .  A
C998        C999   1.395       .  A
C998       H2047   1.085       .  S
C999       C1000   1.402       .  A
C999       C1006   1.444       .  S
C1000      C1001   1.402       .  A
C1001      C1002   1.400       .  A
C1001      H1004   1.085       .  S
C1002      C1005   1.442       .  S
H1003      C2042   1.085       .  S
C1005      N1007   1.157       .  T
C1006      N1008   1.157       .  T
C1009      C1010   1.400       .  A
C1009      C1014   1.409       .  A
C1010      C3099   1.402       .  A
C1010      H1015   1.075       .  S
C1011      C1012   1.409   1_655  A
C1011      C3098   1.400       .  A
C1011      C1018   1.441       .  S
C1012      C1013   1.405       .  A
C1013      C3102   1.403       .  A
C1013      H1016   1.084       .  S
C1014      C3101   1.406       .  A
C1014      C1017   1.444       .  S
C1017      N1019   1.157       .  T
C1018      N1020   1.156       .  T
C1021      C1022   1.406       .  A
C1021      C1026   1.416       .  A
C1022      C2067   1.402       .  A
C1022      H1027   1.082       .  S
C1023      C1024   1.406       .  A
C1023      C2066   1.403       .  A
C1023      C1030   1.443       .  S
C1024      C2069   1.401   1_545  A
C1025      C1026   1.403       .  A
C1025      C2068   1.400       .  A
C1025      H1028   1.084       .  S
C1026      C1029   1.443       .  S
C1029      N1031   1.157       .  T
C1030      N1032   1.157       .  T
C1033      C2090   1.469   1_455  S
C1033      C1034   1.399       .  A
C1033      C1038   1.407       .  A
C1034      C1035   1.391       .  A
C1034      H1039   1.085       .  S
C1035      C1036   1.415       .  A
C1035      C1042   1.444       .  S
C1036      C1037   1.410       .  A
C1037      C1038   1.405       .  A
C1037      H1040   1.084       .  S
C1038      C3129   1.443       .  S
C1041      C3126   1.443       .  S
C1041      N1043   1.157       .  T
C1042      N1044   1.156       .  T
O1045      C1060   1.256       .  A
O1045     Al1053   1.913       .  S
C1046      O1056   1.265       .  A
C1046      O1047   1.260       .  A
C1046      C4165   1.471       .  S
O1047     Al1049   1.890       .  S
O1048      C1050   1.259       .  A
O1048     Al1049   1.881       .  S
Al1049     O1057   1.910       .  S
Al1049     O1059   1.878       .  S
Al1049     O1058   1.780       .  S
C1050      O1063   1.267       .  A
C1050      C2053   1.477       .  S
O1051      C1061   1.258       .  A
O1051     Al1053   1.907       .  S
O1052      C1065   1.263       .  A
O1052     Al1062   1.877       .  S
Al1053     O1066   1.927       .  S
Al1053     O1063   1.936       .  S
Al1053     O1058   1.797       .  S
O1054      C1061   1.251       .  A
O1054     Al1062   1.877       .  S
O1055      C1064   1.257       .  A
O1055     Al1062   1.893       .  S
O1056     Al1062   1.916       .  S
O1057      C1064   1.261       .  A
O1058     Al1062   1.794       .  S
O1059      C1060   1.253       .  A
C1060      C2068   1.472       .  S
C1061      C2017   1.489       .  S
C1065      O1066   1.270       .  A
C1065      C2029   1.478       .  S
O1067      C1082   1.266       .  A
O1067     Al1075   1.934       .  S
C1068      O1078   1.256       .  A
C1068      O1069   1.259       .  A
C1068      C4069   1.468   1_455  S
O1069     Al1071   1.909       .  S
O1070      C1072   1.264       .  A
O1070     Al1071   1.899       .  S
Al1071     O1079   1.884       .  S
Al1071     O1081   1.905       .  S
Al1071     O1080   1.765       .  S
C1072      O1085   1.269       .  A
C1072      C2056   1.478       .  S
O1073      C1083   1.266       .  A
O1073     Al1075   1.909       .  S
O1074      C1087   1.254       .  A
O1074     Al1084   1.859       .  S
Al1075     O1088   1.935       .  S
Al1075     O1085   1.941       .  S
Al1075     O1080   1.787       .  S
O1076      C1083   1.261       .  A
O1076     Al1084   1.895       .  S
O1077      C1086   1.264       .  A
O1077     Al1084   1.928       .  S
O1078     Al1084   1.904       .  S
O1079      C1086   1.261       .  A
O1080     Al1084   1.783       .  S
O1081      C1082   1.261       .  A
C1082      C2005   1.486       .  S
C1083      C1969   1.488       .  S
C1086      C1993   1.471       .  S
C1087      O1088   1.266       .  A
C1087      C1960   1.482       .  S
O1089      C1104   1.267       .  A
O1089     Al1097   1.938       .  S
C1090      O1100   1.257       .  A
C1090      O1091   1.255       .  A
O1091     Al1093   1.881       .  S
O1092      C1094   1.259       .  A
O1092     Al1093   1.892       .  S
Al1093     O1101   1.880       .  S
Al1093     O1103   1.903       .  S
Al1093     O1102   1.766       .  S
C1094      O1107   1.266       .  A
C1094      C1933   1.479       .  S
O1095      C1105   1.266       .  A
O1095     Al1097   1.896       .  S
O1096      C1109   1.255       .  A
O1096     Al1106   1.879       .  S
Al1097     O1110   1.917       .  S
Al1097     O1107   1.940       .  S
Al1097     O1102   1.788       .  S
O1098      C1105   1.266       .  A
O1098     Al1106   1.916       .  S
O1099      C1108   1.265       .  A
O1099     Al1106   1.924       .  S
O1100     Al1106   1.906       .  S
O1101      C1108   1.262       .  A
O1102     Al1106   1.786       .  S
O1103      C1104   1.262       .  A
C1104      C1948   1.490       .  S
C1105      C1909   1.492       .  S
C1108      C4009   1.486   1_455  S
C1109      O1110   1.261       .  A
C1109      C1897   1.477       .  S
O1111      C1126   1.269       .  A
O1111     Al1119   1.944       .  S
C1112      O1122   1.254       .  A
C1112      O1113   1.252       .  A
O1113     Al1115   1.878       .  S
O1114      C1116   1.260       .  A
O1114     Al1115   1.893       .  S
Al1115     O1123   1.878       .  S
Al1115     O1125   1.892       .  S
Al1115     O1124   1.772       .  S
C1116      O1129   1.264       .  A
C1116      C1936   1.480       .  S
O1117      C1127   1.269       .  A
O1117     Al1119   1.906       .  S
O1118      C1131   1.253       .  A
O1118     Al1128   1.880       .  S
Al1119     O1132   1.911       .  S
Al1119     O1129   1.937       .  S
Al1119     O1124   1.797       .  S
O1120      C1127   1.266       .  A
O1120     Al1128   1.907       .  S
O1121      C1130   1.265       .  A
O1121     Al1128   1.920       .  S
O1122     Al1128   1.906       .  S
O1123      C1130   1.261       .  A
O1124     Al1128   1.792       .  S
O1125      C1126   1.261       .  A
C1126      C2008   1.494       .  S
C1127      C1876   1.490       .  S
C1130      C2080   1.485       .  S
C1131      O1132   1.258       .  A
C1131      C1861   1.481       .  S
O1133      C1148   1.260       .  A
O1133     Al1141   1.933       .  S
C1134      O1144   1.260       .  A
C1134      O1135   1.260       .  A
C1134      C2044   1.462       .  S
O1135     Al1137   1.906       .  S
O1136      C1138   1.260       .  A
O1136     Al1137   1.858       .  S
Al1137     O1145   1.888       .  S
Al1137     O1147   1.883       .  S
Al1137     O1146   1.767       .  S
C1138      O1151   1.274       .  A
C1138      C1849   1.496       .  S
O1139      C1149   1.263       .  A
O1139     Al1141   1.918       .  S
O1140      C1153   1.260       .  A
O1140     Al1150   1.865       .  S
Al1141     O1154   1.940       .  S
Al1141     O1151   1.965       .  S
Al1141     O1146   1.782       .  S
O1142      C1149   1.259       .  A
O1142     Al1150   1.911       .  S
O1143      C1152   1.268       .  A
O1143     Al1150   1.953       .  S
O1144     Al1150   1.909       .  S
O1145      C1152   1.260       .  A
O1146     Al1150   1.787       .  S
O1147      C1148   1.254       .  A
C1148      C1945   1.482       .  S
C1149      C1828   1.493       .  S
C1152      C3976   1.478       .  S
C1153      O1154   1.272       .  A
C1153      C1840   1.471       .  S
O1155      C1170   1.267       .  A
O1155     Al1163   1.953       .  S
C1156      O1166   1.268       .  A
C1156      O1157   1.258       .  A
C1156      C1924   1.483       .  S
O1157     Al1159   1.864       .  S
O1158      C1160   1.265       .  A
O1158     Al1159   1.907       .  S
Al1159     O1167   1.880       .  S
Al1159     O1169   1.897       .  S
Al1159     O1168   1.773       .  S
C1160      O1173   1.268       .  A
C1160      C1852   1.486       .  S
O1161      C1171   1.260       .  A
O1161     Al1163   1.930       .  S
O1162      C1175   1.270       .  A
O1162     Al1172   1.922       .  S
Al1163     O1176   1.869       .  S
Al1163     O1173   1.924       .  S
Al1163     O1168   1.792       .  S
O1164      C1171   1.252       .  A
O1164     Al1172   1.878       .  S
O1165      C1174   1.252       .  A
O1165     Al1172   1.900       .  S
O1166     Al1172   1.927       .  S
O1167      C1174   1.252       .  A
O1168     Al1172   1.792       .  S
O1169      C1170   1.258       .  A
C1170      C2065   1.491       .  S
C1171      C1804   1.492       .  S
C1175      O1176   1.264       .  A
C1175      C1813   1.467       .  S
O1177     Al1185   1.930       .  S
C1178      O1188   1.260       .  A
C1178      O1179   1.253       .  A
C1178      C1777   1.475       .  S
O1179     Al1181   1.875       .  S
O1180      C1182   1.260       .  A
O1180     Al1181   1.880       .  S
Al1181     O1189   1.880       .  S
Al1181     O1191   1.912       .  S
Al1181     O1190   1.770       .  S
C1182      O1195   1.266       .  A
C1182      C1789   1.468       .  S
O1183      C1193   1.266       .  A
O1183     Al1185   1.905       .  S
O1184     Al1194   1.887       .  S
Al1185     O1198   1.897       .  S
O1186     Al1194   1.909       .  S
O1187      C1196   1.268       .  A
O1187     Al1194   1.933       .  S
O1188     Al1194   1.931       .  S
O1189      C1196   1.265       .  A
O1190     Al1194   1.787       .  S
O1191      C1192   1.259       .  A
C1192      C1765   1.478       .  S
C1193      C1873   1.485       .  S
C1196      C1753   1.490       .  S
C1197      O1198   1.258       .  A
C1197      C2032   1.465       .  S
O1199      C1214   1.268       .  A
O1199     Al1207   1.956       .  S
C1200      O1210   1.253       .  A
C1200      O1201   1.250       .  A
C1200      C1741   1.469       .  S
O1201     Al1203   1.877       .  S
O1202      C1204   1.261       .  A
O1202     Al1203   1.883       .  S
Al1203     O1211   1.869       .  S
Al1203     O1213   1.900       .  S
Al1203     O1212   1.771       .  S
C1204      O1217   1.267       .  A
C1204      C1792   1.471       .  S
O1205      C1215   1.267       .  A
O1205     Al1207   1.907       .  S
O1206      C1219   1.254       .  A
O1206     Al1216   1.875       .  S
Al1207     O1220   1.895       .  S
Al1207     O1217   1.937       .  S
Al1207     O1212   1.791       .  S
O1208      C1215   1.268       .  A
O1208     Al1216   1.914       .  S
O1209      C1218   1.271       .  A
O1209     Al1216   1.939       .  S
O1210     Al1216   1.907       .  S
O1211      C1218   1.264       .  A
O1212     Al1216   1.791       .  S
O1213      C1214   1.258       .  A
C1214      C1729   1.499       .  S
C1215      C1708   1.499       .  S
C1218      C1717   1.489       .  S
C1219      O1220   1.256       .  A
C1219      C1696   1.474       .  S
O1221      C1236   1.267       .  A
O1221     Al3317   1.932       .  S
C1222      O1232   1.255       .  A
C1222      O1223   1.258       .  A
C1222      C1669   1.467       .  S
O1223     Al1225   1.896       .  S
O1224      C1226   1.255       .  A
O1224     Al1225   1.881       .  S
Al1225     O1233   1.879       .  S
Al1225     O1235   1.921       .  S
Al1225     O1234   1.770       .  S
C1226      O1239   1.263       .  A
C1226      C1684   1.477       .  S
O1227      C1237   1.266       .  A
O1227     Al1229   1.898       .  S
O1228      C3329   1.257       .  A
O1228     Al1238   1.878       .  S
Al1229     O3309   1.924       .  S
Al1229     O1242   1.906       .  S
Al1229     O3327   1.934       .  S
Al1229     O3322   1.793       .  S
O1230      C3325   1.267   1_455  A
O1230     Al1238   1.917       .  S
O1231      C1240   1.264       .  A
O1231     Al1238   1.931       .  S
O1232     Al1238   1.898       .  S
O1233      C1240   1.257       .  A
O1234     Al3317   1.794       .  S
O1234     Al1238   1.788       .  S
O1235      C1236   1.267       .  A
C1236      C1732   1.490       .  S
C1237      O3318   1.267       .  A
C1237      C2020   1.488       .  S
O1239     Al3317   1.945       .  S
C1240      C1780   1.472       .  S
C1241      O3316   1.255       .  A
C1241      O1242   1.259       .  A
C1241      C1837   1.473       .  S
O1243      C1258   1.258       .  A
O1243     Al1251   1.924       .  S
C1244      O1254   1.265       .  A
C1244      O1245   1.260       .  A
C1244      C1720   1.477       .  S
O1245     Al1247   1.895       .  S
O1246      C1248   1.259       .  A
O1246     Al1247   1.873       .  S
Al1247     O1255   1.909       .  S
Al1247     O1257   1.882       .  S
Al1247     O1256   1.778       .  S
C1248      O1261   1.266       .  A
C1248      C1681   1.474       .  S
O1249      C1259   1.257       .  A
O1249     Al1251   1.904       .  S
O1250      C1263   1.261       .  A
O1250     Al1260   1.878       .  S
Al1251     O1264   1.924       .  S
Al1251     O1261   1.937       .  S
Al1251     O1256   1.796       .  S
O1252      C1259   1.255       .  A
O1252     Al1260   1.896       .  S
O1253      C1262   1.261       .  A
O1253     Al1260   1.905       .  S
O1254     Al1260   1.919       .  S
O1255      C1262   1.263       .  A
O1256     Al1260   1.791       .  S
O1257      C1258   1.253       .  A
C1258      C1657   1.476       .  S
C1259      C1621   1.482       .  S
C1262      C1645   1.480       .  S
C1263      O1264   1.269       .  A
C1263      C1633   1.477       .  S
O1265      C1280   1.259       .  A
O1265     Al1273   1.930       .  S
C1266      O1276   1.258       .  A
C1266      O1267   1.259       .  A
C1266      C1648   1.461       .  S
O1267     Al1269   1.908       .  S
O1268      C1270   1.261       .  A
O1268     Al1269   1.861       .  S
Al1269     O1277   1.879       .  S
Al1269     O1279   1.894       .  S
Al1269     O1278   1.769       .  S
C1270      O1283   1.274       .  A
C1270      C1609   1.498       .  S
O1271      C1281   1.260       .  A
O1271     Al1273   1.897       .  S
O1272      C1285   1.260       .  A
O1272     Al1282   1.869       .  S
Al1273     O1286   1.933       .  S
Al1273     O1283   1.971       .  S
Al1273     O1278   1.781       .  S
O1274      C1281   1.259       .  A
O1274     Al1282   1.902       .  S
O1275      C1284   1.270       .  A
O1275     Al1282   1.949       .  S
O1276     Al1282   1.905       .  S
O1277      C1284   1.260       .  A
O1278     Al1282   1.788       .  S
O1279      C1280   1.255       .  A
C1280      C1768   1.480       .  S
C1281      C1597   1.488       .  S
C1284      C1744   1.481       .  S
C1285      O1286   1.269       .  A
C1285      C1585   1.468       .  S
O1287      C1302   1.261       .  A
O1287     Al1295   1.946       .  S
C1288      O1298   1.267       .  A
C1288      O1289   1.258       .  A
C1288      C1756   1.485       .  S
O1289     Al1291   1.866       .  S
O1290      C1292   1.265       .  A
O1290     Al1291   1.899       .  S
Al1291     O1299   1.869       .  S
Al1291     O1301   1.895       .  S
Al1291     O1300   1.773       .  S
C1292      O1305   1.272       .  A
C1292      C1612   1.491       .  S
O1293      C1303   1.258       .  A
O1293     Al1295   1.924       .  S
O1294      C1307   1.271       .  A
O1294     Al1304   1.921       .  S
Al1295     O1308   1.892       .  S
Al1295     O1305   1.938       .  S
Al1295     O1300   1.799       .  S
O1296      C1303   1.253       .  A
O1296     Al1304   1.890       .  S
O1297      C1306   1.252       .  A
O1297     Al1304   1.903       .  S
O1298     Al1304   1.927       .  S
O1299      C1306   1.250       .  A
O1300     Al1304   1.798       .  S
O1301      C1302   1.255       .  A
C1302      C1660   1.489       .  S
C1303      C1825   1.499       .  S
C1306      C1672   1.469       .  S
C1307      O1308   1.269       .  A
C1307      C1864   1.483       .  S
O1309      C1324   1.263       .  A
O1309     Al1317   1.919       .  S
C1310      O1320   1.252       .  A
C1310      O1311   1.262       .  A
C1310      C1564   1.461       .  S
O1311     Al1313   1.919       .  S
O1312      C1314   1.251       .  A
O1312     Al1313   1.854       .  S
Al1313     O1321   1.846       .  S
Al1313     O1323   1.934       .  S
Al1313     O1322   1.758       .  S
C1314      O1327   1.275       .  A
C1314      C1573   1.501       .  S
O1315      C1325   1.267       .  A
O1315     Al1317   1.899       .  S
O1316      C1329   1.256       .  A
O1316     Al1326   1.866       .  S
Al1317     O1330   1.948       .  S
Al1317     O1327   1.988       .  S
Al1317     O1322   1.781       .  S
O1318      C1325   1.270       .  A
O1318     Al1326   1.935       .  S
O1319      C1328   1.272       .  A
O1319     Al1326   1.965       .  S
O1320     Al1326   1.881       .  S
O1321      C1328   1.252       .  A
O1322     Al1326   1.779       .  S
O1323      C1324   1.266       .  A
C1324      C1552   1.482       .  S
C1325      C1624   1.495       .  S
C1328      C1537   1.491       .  S
C1329      O1330   1.268       .  A
C1329      C1588   1.476       .  S
O1331      C3434   1.262       .  A
O1331     Al1339   1.929   1_655  S
C1332      O1342   1.261       .  A
C1332      O1333   1.257       .  A
C1332      C1504   1.477       .  S
O1333     Al1335   1.891       .  S
O1334      C1336   1.256       .  A
O1334     Al1335   1.873       .  S
Al1335     O1343   1.882       .  S
Al1335     O1345   1.906       .  S
Al1335     O1344   1.763       .  S
C1336      O3437   1.270       .  A
C1336      C1576   1.471       .  S
O1337      C1347   1.260       .  A
O1337     Al1339   1.888       .  S
O1338      C3439   1.259       .  A
O1338     Al1348   1.878       .  S
Al1339     O1352   1.926       .  S
Al1339     O1349   1.949   1_455  S
Al1339     O3432   1.788   1_455  S
O1340      C3435   1.262       .  A
O1340     Al1348   1.909       .  S
O1341      C1350   1.268       .  A
O1341     Al1348   1.929       .  S
O1342     Al1348   1.924       .  S
O1343      C1350   1.261       .  A
O1344     Al3427   1.787       .  S
O1344     Al1348   1.784       .  S
O1345      C1346   1.259       .  A
C1346      O3419   1.262       .  A
C1346      C1528   1.477       .  S
C1347      O3428   1.261   1_455  A
C1347      C1972   1.475       .  S
O1349      C3424   1.268       .  A
C1350      C1513   1.487       .  S
C1351      O3426   1.260   1_455  A
C1351      O1352   1.267       .  A
C1351      C1900   1.476       .  S
O1353      C1368   1.258       .  A
O1353     Al1361   1.914       .  S
C1354      O1364   1.266       .  A
C1354      O1355   1.273       .  A
C1354      C1477   1.467       .  S
O1355     Al1357   1.932       .  S
O1356      C1358   1.256       .  A
O1356     Al1357   1.850       .  S
Al1357     O1365   1.889       .  S
Al1357     O1367   1.879       .  S
Al1357     O1366   1.766       .  S
C1358      O1371   1.267       .  A
C1358      C1489   1.492       .  S
O1359      C1369   1.255       .  A
O1359     Al1361   1.915       .  S
O1360      C1373   1.268       .  A
O1360     Al1370   1.866       .  S
Al1361     O1374   1.949       .  S
Al1361     O1371   1.937       .  S
Al1361     O1366   1.788       .  S
O1362      C1369   1.249       .  A
O1362     Al1370   1.879       .  S
O1363      C1372   1.255       .  A
O1363     Al1370   1.926       .  S
O1364     Al1370   1.900       .  S
O1365      C1372   1.250       .  A
O1366     Al1370   1.796       .  S
O1367      C1368   1.253       .  A
C1368      C1525   1.479       .  S
C1369      C1600   1.492       .  S
C1372      C1561   1.477       .  S
C1373      O1374   1.280       .  A
C1373      C1693   1.472       .  S
O1375      C1390   1.262       .  A
O1375     Al1383   1.928       .  S
C1376      O1386   1.263       .  A
C1376      O1377   1.261       .  A
C1376      C1540   1.473       .  S
O1377     Al1379   1.888       .  S
O1378      C1380   1.259       .  A
O1378     Al1379   1.876       .  S
Al1379     O1387   1.896       .  S
Al1379     O1389   1.892       .  S
Al1379     O1388   1.768       .  S
C1380      O1393   1.267       .  A
C1380      C1468   1.473       .  S
O1381      C1391   1.263       .  A
O1381     Al1383   1.914       .  S
O1382      C1395   1.260       .  A
O1382     Al1392   1.877       .  S
Al1383     O1396   1.923       .  S
Al1383     O1393   1.941       .  S
Al1383     O1388   1.786       .  S
O1384      C1391   1.262       .  A
O1384     Al1392   1.912       .  S
O1385      C1394   1.264       .  A
O1385     Al1392   1.922       .  S
O1386     Al1392   1.920       .  S
O1387      C1394   1.261       .  A
O1388     Al1392   1.785       .  S
O1389      C1390   1.256       .  A
C1390      C1453   1.477       .  S
C1391      C1705   1.493       .  S
C1394      C1480   1.484       .  S
C1395      O1396   1.266       .  A
C1395      C1636   1.469       .  S
O1397     Al1405   1.917       .  S
C1398      O1408   1.254       .  A
C1398      O1399   1.259       .  A
C1398      C1441   1.465       .  S
O1399     Al1401   1.905       .  S
O1400      C1402   1.258       .  A
O1400     Al1401   1.885       .  S
Al1401     O1409   1.866       .  S
Al1401     O1411   1.932       .  S
Al1401     O1410   1.762       .  S
C1402      C1465   1.473       .  S
O1403      C1413   1.264       .  A
O1403     Al1405   1.887   1_565  S
O1404     Al1414   1.863       .  S
Al1405     O1418   1.922   1_545  S
Al1405     O1415   1.943       .  S
O1406     Al1414   1.926       .  S
O1407      C1416   1.268       .  A
O1407     Al1414   1.950       .  S
O1408     Al1414   1.893       .  S
O1409      C1416   1.261       .  A
O1410     Al1414   1.781       .  S
O1411      C1412   1.265       .  A
C1412      C1549   1.480       .  S
C1413      C1912   1.485       .  S
C1416      C1501   1.491       .  S
C1417      O1418   1.262       .  A
C1417      C1816   1.473       .  S
O1419      C1434   1.260       .  A
O1419     Al1427   1.929       .  S
C1420      O1430   1.265       .  A
C1420      O1421   1.266       .  A
C1420      C1516   1.464       .  S
O1421     Al1423   1.913       .  S
O1422      C1424   1.256       .  A
O1422     Al1423   1.854       .  S
Al1423     O1431   1.877       .  S
Al1423     O1433   1.882       .  S
Al1423     O1432   1.764       .  S
C1424      O1437   1.271       .  A
C1424      C1492   1.476       .  S
O1425      C1435   1.261       .  A
O1425     Al1427   1.917       .  S
O1426      C1439   1.263       .  A
O1426     Al1436   1.859       .  S
Al1427     O1440   1.948       .  S
Al1427     O1437   1.953       .  S
Al1427     O1432   1.782       .  S
O1428      C1435   1.257       .  A
O1428     Al1436   1.908       .  S
O1429      C1438   1.264       .  A
O1429     Al1436   1.947       .  S
O1430     Al1436   1.905       .  S
O1431      C1438   1.254       .  A
O1432     Al1436   1.791       .  S
O1433      C1434   1.253       .  A
C1434      C1456   1.478       .  S
C1435      C1801   1.495       .  S
C1438      C1444   1.478       .  S
C1439      O1440   1.275       .  A
C1439      C1957   1.463       .  S
C1441      C1442   1.395       .  A
C1441      C1446   1.408       .  A
C1442      C1443   1.393       .  A
C1442      H1447   1.081       .  S
C1443      C1444   1.413       .  A
C1443      C1450   1.443       .  S
C1444      C1445   1.406       .  A
C1445      C1446   1.403       .  A
C1445      H1448   1.085       .  S
C1446      C1449   1.441       .  S
C1449      N1451   1.156       .  T
C1450      N1452   1.157       .  T
C1453      C1454   1.404       .  A
C1453      C1458   1.409       .  A
C1454      C1455   1.402       .  A
C1454      H1459   1.085       .  S
C1455      C1456   1.411       .  A
C1455      C1462   1.444       .  S
C1456      C1457   1.405       .  A
C1457      C1458   1.407       .  A
C1457      H1460   1.083       .  S
C1458      C1461   1.443       .  S
C1461      N1463   1.157       .  T
C1462      N1464   1.157       .  T
C1465      C1466   1.400       .  A
C1465      C1470   1.412       .  A
C1466      C1467   1.398       .  A
C1466      H1471   1.085       .  S
C1467      C1468   1.411       .  A
C1467      C1474   1.443       .  S
C1468      C1469   1.402       .  A
C1469      C1470   1.402       .  A
C1469      H1472   1.084       .  S
C1470      C1473   1.443       .  S
C1473      N1475   1.157       .  T
C1474      N1476   1.157       .  T
C1477      C1478   1.394       .  A
C1477      C1482   1.407       .  A
C1478      C1479   1.397       .  A
C1478      H1483   1.080   1_556  S
C1479      C1480   1.418       .  A
C1479      C1486   1.442   1_556  S
C1480      C1481   1.407       .  A
C1481      C1482   1.401       .  A
C1481      H1484   1.085       .  S
C1482      C1485   1.442       .  S
C1485      N1487   1.157       .  T
C1486      N1488   1.157       .  T
C1489      C1490   1.407       .  A
C1489      C1494   1.417       .  A
C1490      C1491   1.386       .  A
C1490      H1495   1.085       .  S
C1491      C1492   1.411       .  A
C1491      C1498   1.448       .  S
C1492      C1493   1.405       .  A
C1493      C1494   1.413       .  A
C1493      H1496   1.082       .  S
C1494      C1497   1.441       .  S
C1497      N1499   1.157       .  T
C1498      N1500   1.158       .  T
C1501      C1502   1.403       .  A
C1501      C1506   1.417       .  A
C1502      C1503   1.387       .  A
C1502      H1507   1.084       .  S
C1503      C1504   1.410       .  A
C1503      C1510   1.444       .  S
C1504      C1505   1.406       .  A
C1505      C1506   1.412       .  A
C1505      H1508   1.084       .  S
C1506      C1509   1.442       .  S
C1509      N1511   1.157       .  T
C1510      N1512   1.157       .  T
C1513      C1514   1.412       .  A
C1513      C1518   1.418       .  A
C1514      C1515   1.403       .  A
C1514      H1519   1.084       .  S
C1515      C1516   1.403       .  A
C1515      C1522   1.443       .  S
C1516      C1517   1.398       .  A
C1517      C1518   1.393       .  A
C1517      H1520   1.085       .  S
C1518      C1521   1.445       .  S
C1521      N1523   1.157       .  T
C1522      N1524   1.157       .  T
C1525      C1526   1.403       .  A
C1525      C1530   1.412       .  A
C1526      C1527   1.403       .  A
C1526      H1531   1.085       .  S
C1527      C1528   1.410       .  A
C1527      C1534   1.443       .  S
C1528      C1529   1.402       .  A
C1529      C1530   1.405       .  A
C1529      H1532   1.085       .  S
C1530      C1533   1.443       .  S
C1533      N1535   1.157       .  T
C1534      N3624   1.157       .  T
N1536      C3622   1.157       .  T
C1537      C1538   1.412       .  A
C1537      C1542   1.424       .  A
C1538      C1539   1.411       .  A
C1538      H1543   1.084       .  S
C1539      C1540   1.408       .  A
C1539      C1546   1.441   1_556  S
C1540      C1541   1.395       .  A
C1541      C1542   1.384       .  A
C1541      H1544   1.086       .  S
C1542      C1545   1.446       .  S
C1545      N1547   1.157       .  T
C1546      N1548   1.157       .  T
C1549      C1550   1.403       .  A
C1549      C1554   1.410       .  A
C1550      C1551   1.407       .  A
C1550      H1555   1.085       .  S
C1551      C1552   1.412       .  A
C1551      C1558   1.444       .  S
C1552      C1553   1.403       .  A
C1553      C1554   1.406       .  A
C1553      H1556   1.084       .  S
C1554      C1557   1.443       .  S
C1557      N1559   1.157       .  T
C1558      N1560   1.157       .  T
C1561      C1562   1.405       .  A
C1561      C1566   1.413   1_556  A
C1562      C1563   1.398       .  A
C1562      H1567   1.085       .  S
C1563      C1564   1.404       .  A
C1563      C1570   1.444       .  S
C1564      C1565   1.399       .  A
C1565      C1566   1.400   1_556  A
C1565      H1568   1.085   1_556  S
C1566      C1569   1.442       .  S
C1569      N1571   1.157       .  T
C1570      N1572   1.157       .  T
C1573      C1574   1.412       .  A
C1573      C1578   1.428       .  A
C1574      C1575   1.414       .  A
C1574      H1579   1.084       .  S
C1575      C1576   1.410       .  A
C1575      C1582   1.443       .  S
C1576      C1577   1.390       .  A
C1577      C1578   1.390       .  A
C1577      H1580   1.085       .  S
C1578      C1581   1.445       .  S
C1581      N1583   1.157       .  T
C1582      N1584   1.157       .  T
C1585      C1586   1.396       .  A
C1585      C1590   1.413   1_554  A
C1586      H1591   1.085       .  S
C1587      C1588   1.417   1_554  A
C1587      C1594   1.445       .  S
C1588      C1589   1.401       .  A
C1589      H1592   1.085       .  S
C1590      C1593   1.444       .  S
C1593      N1595   1.157       .  T
C1594      N1596   1.157       .  T
C1597      C1598   1.409   1_554  A
C1597      C1602   1.412       .  A
C1598      C1599   1.403       .  A
C1598      H1603   1.084       .  S
C1599      C1600   1.413       .  A
C1599      C1606   1.444       .  S
C1600      C1601   1.410   1_556  A
C1601      C1602   1.398       .  A
C1601      H1604   1.085       .  S
C1602      C1605   1.446       .  S
C1605      N1607   1.158       .  T
C1606      N1608   1.157       .  T
C1609      C1610   1.405       .  A
C1609      C1614   1.417       .  A
C1610      C1611   1.390       .  A
C1610      H1615   1.084       .  S
C1611      C1612   1.416       .  A
C1611      C1618   1.447       .  S
C1612      C1613   1.409       .  A
C1613      C1614   1.416       .  A
C1613      H1616   1.084       .  S
C1614      C1617   1.442       .  S
C1617      N1619   1.157       .  T
C1618      N1620   1.157       .  T
C1621      C1622   1.402       .  A
C1621      C1626   1.413   1_554  A
C1622      C3711   1.404   1_455  A
C1622      H1627   1.085       .  S
C1623      C3710   1.405       .  A
C1623      C1624   1.420   1_554  A
C1623      C1630   1.444       .  S
C1624      C3713   1.407       .  A
C1625      C3712   1.407       .  A
C1625      C1626   1.400   1_655  A
C1625      H1628   1.084       .  S
C1626      C1629   1.445       .  S
C1629      N1631   1.157       .  T
C1630      N1632   1.157       .  T
C1633      C1634   1.405       .  A
C1633      C1638   1.415   1_554  A
C1634      C1635   1.400   1_554  A
C1634      H1639   1.085       .  S
C1635      C1636   1.409       .  A
C1635      C1642   1.444       .  S
C1636      C1637   1.400       .  A
C1637      C1638   1.396       .  A
C1637      H1640   1.086       .  S
C1638      C1641   1.445       .  S
C1641      N1643   1.157   1_556  T
C1642      N1644   1.157       .  T
C1645      C1646   1.408       .  A
C1645      C1650   1.411       .  A
C1646      C1647   1.396       .  A
C1646      H1651   1.085       .  S
C1647      C1648   1.404       .  A
C1647      C1654   1.443   1_554  S
C1648      C1649   1.400       .  A
C1649      C1650   1.400       .  A
C1649      H1652   1.084       .  S
C1650      C1653   1.441       .  S
C1653      N1655   1.156       .  T
C1654      N1656   1.157       .  T
C1657      C1658   1.403       .  A
C1657      C1662   1.406       .  A
C1658      C1659   1.408       .  A
C1658      H1663   1.083       .  S
C1659      C1660   1.415       .  A
C1659      C1666   1.443       .  S
C1660      C1661   1.404       .  A
C1661      C1662   1.401       .  A
C1661      H1664   1.081       .  S
C1662      C1665   1.442       .  S
C1665      N1667   1.157       .  T
C1666      N1668   1.157       .  T
C1669      C1670   1.399       .  A
C1669      C1674   1.410       .  A
C1670      C1671   1.397       .  A
C1670      H1675   1.082       .  S
C1671      C1672   1.407       .  A
C1671      C1678   1.442       .  S
C1672      C1673   1.402       .  A
C1673      C1674   1.403       .  A
C1673      H1676   1.085       .  S
C1674      C1677   1.444       .  S
C1677      N1679   1.157       .  T
C1678      N1680   1.156       .  T
C1681      C1682   1.399       .  A
C1681      C1686   1.411       .  A
C1682      C1683   1.401       .  A
C1682      H1687   1.080       .  S
C1683      C1684   1.411       .  A
C1683      C1690   1.443       .  S
C1684      C1685   1.402       .  A
C1685      C1686   1.403       .  A
C1685      H3776   1.084       .  S
C1686      C1689   1.445       .  S
H1688      C3773   1.085       .  S
C1689      N3779   1.157       .  T
C1690      N1692   1.157       .  T
N1691      C3777   1.157       .  T
C1693      C1694   1.405   1_556  A
C1693      C3786   1.410       .  A
C1694      C3783   1.396       .  A
C1694      H1699   1.085       .  S
C1695      C3782   1.397   1_455  A
C1695      C1696   1.411       .  A
C1695      C3790   1.444       .  S
C1696      C1697   1.405   1_554  A
C1697      C1698   1.397       .  A
C1697      H1700   1.085       .  S
C1698      C3781   1.408   1_455  A
C1698      C1701   1.443   1_455  S
C1701      N1703   1.157       .  T
C1702      C3783   1.444       .  S
C1702      N1704   1.157       .  T
C1705      C1706   1.407   1_556  A
C1705      C1710   1.413       .  A
C1706      H1711   1.085       .  S
C1707      C1708   1.418       .  A
C1707      C1714   1.444   1_565  S
C1708      C1709   1.410   1_554  A
C1709      H1712   1.084       .  S
C1710      C1713   1.444       .  S
C1713      N1715   1.157       .  T
C1714      N1716   1.157       .  T
C1717      C1718   1.405       .  A
C1717      C1722   1.417       .  A
C1718      C1719   1.391       .  A
C1718      H1723   1.085       .  S
C1719      C1720   1.413       .  A
C1719      C1726   1.445       .  S
C1720      C1721   1.404       .  A
C1721      C1722   1.407       .  A
C1721      H1724   1.085       .  S
C1722      C1725   1.442   1_554  S
C1725      N1727   1.157       .  T
C1726      N1728   1.157       .  T
C1729      C1730   1.412       .  A
C1729      C1734   1.418       .  A
C1730      C1731   1.418       .  A
C1730      H1735   1.084       .  S
C1731      C1732   1.413       .  A
C1731      C1738   1.442       .  S
C1732      C1733   1.400       .  A
C1733      C1734   1.397       .  A
C1733      H1736   1.086       .  S
C1734      C1737   1.446       .  S
C1737      N1739   1.157       .  T
C1738      N1740   1.157   1_455  T
C1741      C1742   1.398       .  A
C1741      C1746   1.409       .  A
C1742      C1743   1.393       .  A
C1742      H1747   1.082       .  S
C1743      C1744   1.411       .  A
C1743      C1750   1.441       .  S
C1744      C1745   1.405       .  A
C1745      C1746   1.405       .  A
C1745      H1748   1.082   1_554  S
C1746      C1749   1.442   1_554  S
C1749      N1751   1.157       .  T
C1750      N1752   1.156       .  T
C1753      C1754   1.403       .  A
C1753      C1758   1.419       .  A
C1754      C1755   1.391       .  A
C1754      H1759   1.084       .  S
C1755      C1756   1.415       .  A
C1755      C1762   1.444       .  S
C1756      C1757   1.405       .  A
C1757      C1758   1.407       .  A
C1757      H1760   1.084       .  S
C1758      C1761   1.444       .  S
C1761      N1763   1.157       .  T
C1762      N1764   1.156       .  T
C1765      C1766   1.401       .  A
C1765      C1770   1.410       .  A
C1766      C1767   1.398       .  A
C1766      H1771   1.084       .  S
C1767      C1768   1.410       .  A
C1767      C1774   1.443       .  S
C1768      C1769   1.406       .  A
C1769      C1770   1.411       .  A
C1769      H1772   1.084       .  S
C1773      N1775   1.157       .  T
C1774      N1776   1.156       .  T
C1777      C1778   1.402       .  A
C1777      C1782   1.410       .  A
C1778      C1779   1.391       .  A
C1778      H1783   1.087       .  S
C1779      C1780   1.408       .  A
C1779      C1786   1.446       .  S
C1780      C1781   1.406       .  A
C1781      C1782   1.411       .  A
C1781      H1784   1.085       .  S
C1782      C1785   1.441       .  S
C1785      N1787   1.157       .  T
C1786      N1788   1.157       .  T
C1789      C1790   1.401       .  A
C1789      C1794   1.409       .  A
C1790      C1791   1.399       .  A
C1790      H1795   1.085       .  S
C1791      C1792   1.410       .  A
C1791      C1798   1.443       .  S
C1792      C1793   1.401       .  A
C1793      C1794   1.398       .  A
C1793      H1796   1.085       .  S
C1797      N1799   1.157       .  T
C1798      N1800   1.157       .  T
C1801      C1802   1.411       .  A
C1801      C1806   1.413       .  A
C1802      C1803   1.406       .  A
C1802      H1807   1.084       .  S
C1803      C1804   1.411       .  A
C1803      C1810   1.444       .  S
C1804      C1805   1.408       .  A
C1805      C1806   1.403       .  A
C1805      H1808   1.085       .  S
C1806      C1809   1.443       .  S
C1809      N1811   1.157       .  T
C1810      N1812   1.157       .  T
C1813      C1814   1.400       .  A
C1813      C1818   1.409       .  A
C1814      C1815   1.389       .  A
C1814      H1819   1.086       .  S
C1815      C1816   1.415       .  A
C1815      C1822   1.446   1_565  S
C1816      C1817   1.406       .  A
C1817      C1818   1.402       .  A
C1817      H1820   1.084       .  S
C1818      C1821   1.443       .  S
C1821      N1823   1.157       .  T
C1822      N1824   1.157       .  T
C1825      C1826   1.410       .  A
C1825      C1830   1.416       .  A
C1826      C1827   1.405       .  A
C1826      H1831   1.084       .  S
C1827      C1828   1.412       .  A
C1827      C1834   1.444       .  S
C1828      C1829   1.408       .  A
C1829      C1830   1.408       .  A
C1829      H1832   1.085       .  S
C1830      C1833   1.444       .  S
C1833      N1835   1.157       .  T
C1834      N1836   1.157       .  T
C1837      C1838   1.405       .  A
C1837      C1842   1.409       .  A
C1838      C1839   1.401       .  A
C1838      H1843   1.085       .  S
C1839      C1840   1.410       .  A
C1839      C1846   1.444       .  S
C1840      C1841   1.403       .  A
C1841      C1842   1.396       .  A
C1841      H1844   1.085       .  S
C1842      C3933   1.445       .  S
C1845      C3930   1.444       .  S
C1845      N1847   1.157       .  T
C1846      N1848   1.157       .  T
C1849      C1850   1.407       .  A
C1849      C1854   1.416       .  A
C1850      C1851   1.390       .  A
C1850      H1855   1.084       .  S
C1851      C1852   1.414       .  A
C1851      C1858   1.446       .  S
C1852      C1853   1.408       .  A
C1853      C1854   1.413       .  A
C1853      H1856   1.085       .  S
C1854      C1857   1.442       .  S
C1857      N1859   1.157       .  T
C1858      N1860   1.157       .  T
C1861      C1862   1.404       .  A
C1861      C1866   1.415       .  A
C1862      C1863   1.403       .  A
C1862      H1867   1.085       .  S
C1863      C1864   1.414       .  A
C1863      C1870   1.443       .  S
C1864      C1865   1.404       .  A
C1865      C1866   1.397       .  A
C1865      H1868   1.085       .  S
C1866      C1869   1.445       .  S
C1869      N1871   1.157       .  T
C1870      N1872   1.157       .  T
C1873      C1874   1.402       .  A
C1873      C1878   1.417       .  A
C1874      C1875   1.400       .  A
C1875      C1876   1.420       .  A
C1875      C1882   1.444       .  S
C1876      C1877   1.405       .  A
C1877      C1878   1.400       .  A
C1877      H1880   1.085       .  S
C1878      C1881   1.445       .  S
C1881      N1883   1.157       .  T
C1885      C1886   1.402       .  A
C1885      C1890   1.411       .  A
C1886      C1887   1.399       .  A
C1886      H1891   1.084       .  S
C1887      C1888   1.409       .  A
C1887      C1894   1.444       .  S
C1888      C3240   1.474   1_455  S
C1888      C1889   1.402       .  A
C1889      C1890   1.402       .  A
C1889      H1892   1.084       .  S
C1890      C1893   1.444   1_565  S
C1894      N1896   1.157       .  T
C1897      C1898   1.404       .  A
C1897      C1902   1.413       .  A
C1898      C1899   1.400       .  A
C1898      H1903   1.085       .  S
C1899      C1900   1.411       .  A
C1899      C1906   1.444       .  S
C1900      C1901   1.404       .  A
C1901      C1902   1.399       .  A
C1901      H3992   1.085   1_455  S
C1902      C1905   1.446   1_455  S
H1904      C3989   1.085       .  S
C1905      N3995   1.158       .  T
C1906      N1908   1.157       .  T
N1907      C3993   1.158       .  T
C1909      C1910   1.408       .  A
C1909      C1914   1.420       .  A
C1910      C1911   1.400       .  A
C1910      H1915   1.084       .  S
C1911      C1912   1.412       .  A
C1911      C1918   1.444       .  S
C1912      C1913   1.405       .  A
C1913      C1914   1.400       .  A
C1914      C1917   1.445       .  S
C1917      N1919   1.158       .  T
C1918      N1920   1.157       .  T
C1921      C3196   1.486       .  S
C1921      C1922   1.403       .  A
C1921      C1926   1.416       .  A
C1922      C1923   1.391       .  A
C1922      H1927   1.085       .  S
C1923      C1924   1.417       .  A
C1923      C1930   1.445       .  S
C1924      C1925   1.405       .  A
C1925      C1926   1.404       .  A
C1925      H1928   1.085       .  S
C1926      C1929   1.443       .  S
C1929      N1931   1.157       .  T
C1930      N1932   1.157       .  T
C1933      C1934   1.402       .  A
C1934      C1935   1.402       .  A
C1934      H1939   1.085       .  S
C1935      C1942   1.444       .  S
C1936      C1937   1.405       .  A
C1937      C1938   1.402       .  A
C1937      H1940   1.085       .  S
C1938      C1941   1.444       .  S
C1941      N1943   1.157       .  T
C1942      N1944   1.157       .  T
C1945      C4034   1.398       .  A
C1945      C1950   1.411       .  A
C1946      C4033   1.400   1_455  A
C1946      C1947   1.391       .  A
C1946      H1951   1.085       .  S
C1947      C1948   1.415       .  A
C1947      C1954   1.443       .  S
C1948      C4037   1.411       .  A
C1949      C4036   1.412       .  A
C1949      C1950   1.416       .  A
C1949      H1952   1.084       .  S
C1950      C1953   1.442       .  S
C1953      N1955   1.157       .  T
C1954      N1956   1.156       .  T
C1957      C1958   1.396       .  A
C1957      C1962   1.406       .  A
C1958      C1959   1.390       .  A
C1958      H1963   1.087       .  S
C1959      C1960   1.419       .  A
C1959      C1966   1.446       .  S
C1960      C1961   1.410       .  A
C1961      C1962   1.405       .  A
C1961      H1964   1.084       .  S
C1962      C1965   1.443       .  S
C1965      N1967   1.157       .  T
C1966      N1968   1.157       .  T
C1969      C1970   1.407       .  A
C1969      C1974   1.421       .  A
C1970      C1971   1.403       .  A
C1970      H1975   1.084       .  S
C1971      C1972   1.412       .  A
C1971      C4066   1.444       .  S
C1972      C1973   1.397       .  A
C1973      C1974   1.394       .  A
C1973      H1976   1.084       .  S
C1974      C1977   1.446       .  S
C1977      N1979   1.157       .  T
C1978      C4059   1.444       .  S
C1978      N1980   1.157       .  T
C1981      C3156   1.469       .  S
C1981      C1982   1.397       .  A
C1981      C1986   1.408       .  A
C1982      C1983   1.397       .  A
C1982      H1987   1.077       .  S
C1983      C1984   1.408       .  A
C1983      C1990   1.442       .  S
C1984      C1985   1.403       .  A
C1985      C1986   1.403       .  A
C1985      H1988   1.085       .  S
C1986      C4077   1.442       .  S
C1989      C4074   1.442       .  S
C1989      N1991   1.157   1_655  T
C1990      N1992   1.157       .  T
C1993      C1994   1.400       .  A
C1993      C1998   1.408       .  A
C1994      C1995   1.401       .  A
C1994      H1999   1.081       .  S
C1995      C1996   1.409       .  A
C1996      C1997   1.401       .  A
C1997      C1998   1.395       .  A
C1997      H2000   1.084       .  S
C1998      C2001   1.443       .  S
C2001      N2003   1.157       .  T
C2002      N2004   1.157   1_545  T
C2005      C2006   1.399       .  A
C2005      C2010   1.412       .  A
C2006      C2007   1.390       .  A
C2006      H2011   1.086       .  S
C2007      C2008   1.419       .  A
C2007      C2014   1.447       .  S
C2008      C2009   1.412       .  A
C2009      C2010   1.417       .  A
C2009      H2012   1.084       .  S
C2010      C2013   1.442       .  S
C2013      N2015   1.157       .  T
C2014      N2016   1.157       .  T
C2017      C2018   1.404       .  A
C2017      C2022   1.421       .  A
C2018      C2019   1.401       .  A
C2018      H2023   1.085       .  S
C2019      C2020   1.417       .  A
C2019      C4114   1.444       .  S
C2020      C2021   1.403       .  A
C2021      C2022   1.398       .  A
C2021      H2024   1.085       .  S
C2022      C2025   1.446       .  S
C2025      N2027   1.158       .  T
C2026      C4107   1.444       .  S
C2026      N2028   1.157       .  T
C2029      C2030   1.406       .  A
C2029      C2034   1.414       .  A
C2030      C2031   1.397       .  A
C2030      H2035   1.085       .  S
C2031      C2032   1.407       .  A
C2031      C2038   1.445       .  S
C2032      C2033   1.400       .  A
C2033      C2034   1.399       .  A
C2033      H2036   1.085       .  S
C2034      C2037   1.444       .  S
C2037      N2039   1.157       .  T
C2041      C2042   1.409       .  A
C2041      C2046   1.411       .  A
C2042      C2043   1.397       .  A
C2043      C2044   1.403       .  A
C2043      C2050   1.444       .  S
C2044      C2045   1.402       .  A
C2045      C2046   1.401       .  A
C2045      H2048   1.085       .  S
C2046      C2049   1.442       .  S
C2049      N2051   1.157       .  T
C2050      N2052   1.157       .  T
C2053      C2054   1.399       .  A
C2053      C2058   1.410       .  A
C2054      C4143   1.401       .  A
C2054      H2059   1.077       .  S
C2055      C4142   1.400       .  A
C2055      C2056   1.410   1_655  A
C2055      C2062   1.441       .  S
C2056      C2057   1.405       .  A
C2057      C4146   1.402       .  A
C2057      H2060   1.084       .  S
C2058      C4145   1.406       .  A
C2058      C2061   1.444       .  S
C2061      N2063   1.157       .  T
C2062      N2064   1.156       .  T
C2065      C2066   1.407   1_565  A
C2065      C2070   1.415       .  A
C2066      H2071   1.083       .  S
C2067      C2068   1.406       .  A
C2067      C2074   1.443       .  S
C2069      C2070   1.404       .  A
C2069      H2072   1.084       .  S
C2070      C2073   1.443       .  S
C2073      N2075   1.157       .  T
C2074      N2076   1.157       .  T
C2077      C3134   1.470   1_455  S
C2077      C2078   1.399       .  A
C2077      C2082   1.407       .  A
C2078      C2079   1.391       .  A
C2078      H2083   1.085       .  S
C2079      C2080   1.415       .  A
C2079      C2086   1.444       .  S
C2080      C2081   1.410       .  A
C2081      C2082   1.406       .  A
C2081      H2084   1.084       .  S
C2082      C4173   1.443       .  S
C2085      C4170   1.443       .  S
C2085      N2087   1.157       .  T
C2086      N2088   1.157       .  T
O2089      C2104   1.256       .  A
O2089     Al2097   1.910       .  S
C2090      O2100   1.264       .  A
C2090      O2091   1.260       .  A
O2091     Al2093   1.887       .  S
O2092      C2094   1.259       .  A
O2092     Al2093   1.882       .  S
Al2093     O2101   1.911       .  S
Al2093     O2103   1.876       .  S
Al2093     O2102   1.781       .  S
C2094      O2107   1.265       .  A
C2094      C3097   1.473       .  S
O2095      C2105   1.259       .  A
O2095     Al2097   1.914       .  S
O2096      C2109   1.263       .  A
O2096     Al2106   1.880       .  S
Al2097     O2110   1.921       .  S
Al2097     O2107   1.927       .  S
Al2097     O2102   1.801       .  S
O2098      C2105   1.251       .  A
O2098     Al2106   1.878       .  S
O2099      C2108   1.258       .  A
O2099     Al2106   1.903       .  S
O2100     Al2106   1.915       .  S
O2101      C2108   1.261       .  A
O2102     Al2106   1.796       .  S
O2103      C2104   1.253       .  A
C2104      C3112   1.471       .  S
C2105      C3061   1.494       .  S
C2108      C4129   1.486   1_545  S
C2109      O2110   1.268       .  A
C2109      C3073   1.469       .  S
O2111      C2126   1.265       .  A
O2111     Al2119   1.932       .  S
C2112      O2122   1.256       .  A
C2112      O2113   1.260       .  A
O2113     Al2115   1.909       .  S
O2114      C2116   1.263       .  A
O2114     Al2115   1.896       .  S
Al2115     O2123   1.888       .  S
Al2115     O2125   1.904       .  S
Al2115     O2124   1.766       .  S
C2116      O2129   1.270       .  A
C2116      C3100   1.482       .  S
O2117      C2127   1.267       .  A
O2117     Al2119   1.911       .  S
O2118      C2131   1.255       .  A
O2118     Al2128   1.861       .  S
Al2119     O2132   1.933       .  S
Al2119     O2129   1.951       .  S
Al2119     O2124   1.789       .  S
O2120      C2127   1.261       .  A
O2120     Al2128   1.896       .  S
O2121      C2130   1.264       .  A
O2121     Al2128   1.931       .  S
O2122     Al2128   1.902       .  S
O2123      C2130   1.261       .  A
O2124     Al2128   1.785       .  S
O2125      C2126   1.261       .  A
C2126      C3049   1.485       .  S
C2127      C3013   1.491       .  S
C2130      C3037   1.473       .  S
C2131      O2132   1.266       .  A
C2131      C3004   1.481       .  S
O2133      C2148   1.267       .  A
O2133     Al2141   1.942       .  S
C2134      O2144   1.257       .  A
C2134      O2135   1.255       .  A
C2134      C4084   1.466       .  S
O2135     Al2137   1.883       .  S
O2136      C2138   1.259       .  A
O2136     Al2137   1.887       .  S
Al2137     O2145   1.875       .  S
Al2137     O2147   1.902       .  S
Al2137     O2146   1.765       .  S
C2138      O2151   1.268       .  A
C2138      C2977   1.480       .  S
O2139      C2149   1.267       .  A
O2139     Al2141   1.899       .  S
O2140      C2153   1.255       .  A
O2140     Al2150   1.878       .  S
Al2141     O2154   1.923       .  S
Al2141     O2151   1.949       .  S
Al2141     O2146   1.785       .  S
O2142      C2149   1.266       .  A
O2142     Al2150   1.917       .  S
O2143      C2152   1.266       .  A
O2143     Al2150   1.927       .  S
O2144     Al2150   1.906       .  S
O2145      C2152   1.262       .  A
O2146     Al2150   1.784       .  S
O2147      C2148   1.261       .  A
C2148      C2992   1.490       .  S
C2149      C2953   1.495       .  S
C2153      O2154   1.262       .  A
C2153      C2941   1.477       .  S
O2155      C2170   1.270       .  A
O2155     Al2163   1.948       .  S
C2156      O2166   1.254       .  A
C2156      O2157   1.251       .  A
C2156      C3973   1.472   1_545  S
O2157     Al2159   1.875       .  S
O2158      C2160   1.259       .  A
O2158     Al2159   1.894       .  S
Al2159     O2167   1.879       .  S
Al2159     O2169   1.889       .  S
Al2159     O2168   1.774       .  S
C2160      O2173   1.264       .  A
C2160      C2980   1.480       .  S
O2161      C2171   1.271       .  A
O2161     Al2163   1.913       .  S
O2162      C2175   1.253       .  A
O2162     Al2172   1.884       .  S
Al2163     O2176   1.908       .  S
Al2163     O2173   1.939       .  S
Al2163     O2168   1.798       .  S
O2164      C2171   1.266       .  A
O2164     Al2172   1.909       .  S
O2165      C2174   1.266       .  A
O2165     Al2172   1.918       .  S
O2166     Al2172   1.908       .  S
O2167      C2174   1.261       .  A
O2168     Al2172   1.793       .  S
O2169      C2170   1.260       .  A
C2170      C3052   1.495       .  S
C2171      C2920   1.497       .  S
C2174      C3124   1.485       .  S
C2175      O2176   1.257       .  A
C2175      C2905   1.486       .  S
O2177      C2192   1.262       .  A
O2177     Al2185   1.937       .  S
C2178      O2188   1.259       .  A
C2178      O2179   1.260       .  A
C2178      C3088   1.463       .  S
O2179     Al2181   1.907       .  S
O2180      C2182   1.260       .  A
O2180     Al2181   1.858       .  S
Al2181     O2189   1.886       .  S
Al2181     O2191   1.881       .  S
Al2181     O2190   1.766       .  S
C2182      O2195   1.272       .  A
C2182      C2893   1.494       .  S
O2183      C2193   1.263       .  A
O2183     Al2185   1.922       .  S
O2184      C2197   1.261       .  A
O2184     Al2194   1.868       .  S
Al2185     O2198   1.936       .  S
Al2185     O2195   1.958       .  S
Al2185     O2190   1.783       .  S
O2186      C2193   1.258       .  A
O2186     Al2194   1.896       .  S
O2187      C2196   1.267       .  A
O2187     Al2194   1.948       .  S
O2188     Al2194   1.908       .  S
O2189      C2196   1.259       .  A
O2190     Al2194   1.786       .  S
O2191      C2192   1.254       .  A
C2192      C2989   1.484       .  S
C2193      C2872   1.492       .  S
C2197      O2198   1.271       .  A
C2197      C2884   1.465       .  S
O2199      C2214   1.265       .  A
O2199     Al2207   1.944       .  S
C2200      O2210   1.267       .  A
C2200      O2201   1.260       .  A
C2200      C2968   1.481       .  S
O2201     Al2203   1.871       .  S
O2202      C2204   1.263       .  A
O2202     Al2203   1.897       .  S
Al2203     O2211   1.877       .  S
Al2203     O2213   1.900       .  S
Al2203     O2212   1.774       .  S
C2204      O2217   1.268       .  A
C2204      C2896   1.485       .  S
O2205      C2215   1.258       .  A
O2205     Al2207   1.921       .  S
O2206      C2219   1.270       .  A
O2206     Al2216   1.926       .  S
Al2207     O2220   1.868       .  S
Al2207     O2217   1.924       .  S
Al2207     O2212   1.794       .  S
O2208      C2215   1.252       .  A
O2208     Al2216   1.880       .  S
O2209      C2218   1.253       .  A
O2209     Al2216   1.903       .  S
O2210     Al2216   1.923       .  S
O2211      C2218   1.252       .  A
O2212     Al2216   1.793       .  S
O2213      C2214   1.259       .  A
C2214      C3109   1.489       .  S
C2215      C2848   1.494       .  S
C2218      C4072   1.470       .  S
C2219      O2220   1.264       .  A
C2219      C2857   1.472       .  S
O2221      C3280   1.261       .  A
O2221     Al2229   1.936   1_565  S
C2222      O2232   1.260       .  A
C2222      O2223   1.253       .  A
C2222      C2821   1.474       .  S
O2223     Al2225   1.867       .  S
O2224      C2226   1.261       .  A
O2224     Al2225   1.881       .  S
Al2225     O2233   1.891       .  S
Al2225     O2235   1.906       .  S
Al2225     O2234   1.770       .  S
C2226      O2239   1.267       .  A
C2226      C2833   1.469       .  S
O2227      C2237   1.266       .  A
O2227     Al2229   1.910       .  S
O2228      C3285   1.257       .  A
O2228     Al2238   1.876       .  S
Al2229     O2242   1.902       .  S
Al2229     O3283   1.949   1_545  S
Al2229     O3278   1.789   1_545  S
O2230      C3281   1.263       .  A
O2230     Al2238   1.904       .  S
O2231      C2240   1.267       .  A
O2231     Al2238   1.926       .  S
O2232     Al2238   1.928       .  S
O2233      C2240   1.267       .  A
O2234     Al3273   1.788       .  S
O2234     Al2238   1.789       .  S
O2235      C2236   1.256       .  A
C2236      O3265   1.261       .  A
C2236      C2809   1.482       .  S
C2237      O3274   1.265   1_545  A
C2237      C2917   1.489       .  S
O2239     Al3273   1.940       .  S
C2240      C2797   1.487       .  S
C2241      O3272   1.258   1_545  A
C2241      O2242   1.259       .  A
C2241      C3076   1.473       .  S
O2243      C2258   1.267       .  A
O2243     Al2251   1.954       .  S
C2244      O2254   1.252       .  A
C2244      O2245   1.250       .  A
C2244      C2785   1.467       .  S
O2245     Al2247   1.879       .  S
O2246      C2248   1.262       .  A
O2246     Al2247   1.888       .  S
Al2247     O2255   1.866       .  S
Al2247     O2257   1.902       .  S
Al2247     O2256   1.773       .  S
C2248      O2261   1.269       .  A
C2248      C2836   1.475       .  S
O2249      C2259   1.267       .  A
O2249     Al2251   1.908       .  S
O2250      C2263   1.254       .  A
O2250     Al2260   1.875       .  S
Al2251     O2264   1.901       .  S
Al2251     O2261   1.945       .  S
Al2251     O2256   1.786       .  S
O2252      C2259   1.267       .  A
O2252     Al2260   1.910       .  S
O2253      C2262   1.272       .  A
O2253     Al2260   1.942       .  S
O2254     Al2260   1.905       .  S
O2255      C2262   1.264       .  A
O2256     Al2260   1.791       .  S
O2257      C2258   1.257       .  A
C2258      C2773   1.496       .  S
C2259      C2752   1.496       .  S
C2262      C2761   1.488       .  S
C2263      O2264   1.257       .  A
C2263      C2740   1.472       .  S
O2265      C2280   1.266       .  A
C2266      O2276   1.257       .  A
C2266      O2267   1.256       .  A
C2266      C2713   1.469       .  S
O2267     Al2269   1.892       .  S
O2268      C2270   1.256       .  A
O2268     Al2269   1.881       .  S
Al2269     O2277   1.875       .  S
Al2269     O2279   1.924       .  S
Al2269     O2278   1.767       .  S
C2270      O2283   1.263       .  A
C2270      C2728   1.471       .  S
O2271      C2281   1.269       .  A
O2271     Al2273   1.903   1_655  S
O2272     Al2282   1.882       .  S
Al2273     O2286   1.917   1_455  S
O2274     Al2282   1.924       .  S
O2275      C2284   1.265       .  A
O2275     Al2282   1.931       .  S
O2276     Al2282   1.907       .  S
O2277      C2284   1.259       .  A
O2278     Al2282   1.788       .  S
O2279      C2280   1.266       .  A
C2280      C2776   1.485       .  S
C2281      C3064   1.489       .  S
C2284      C2824   1.468       .  S
C2285      O2286   1.260   1_455  A
C2285      C2881   1.478   1_455  S
O2287      C2302   1.260       .  A
O2287     Al2295   1.930       .  S
C2288      O2298   1.265       .  A
C2288      O2289   1.259       .  A
C2288      C2764   1.478       .  S
O2289     Al2291   1.893       .  S
O2290      C2292   1.258       .  A
O2290     Al2291   1.874       .  S
Al2291     O2299   1.913       .  S
Al2291     O2301   1.883       .  S
Al2291     O2300   1.776       .  S
C2292      O2305   1.265       .  A
C2292      C2725   1.471       .  S
O2293      C2303   1.259       .  A
O2293     Al2295   1.911       .  S
O2294      C2307   1.262       .  A
O2294     Al2304   1.880       .  S
Al2295     O2308   1.923       .  S
Al2295     O2305   1.931       .  S
Al2295     O2300   1.795       .  S
O2296      C2303   1.258       .  A
O2296     Al2304   1.909       .  S
O2297      C2306   1.263       .  A
O2297     Al2304   1.917       .  S
O2298     Al2304   1.922       .  S
O2299      C2306   1.263       .  A
O2300     Al2304   1.788       .  S
O2301      C2302   1.254       .  A
C2302      C2701   1.477       .  S
C2303      C2665   1.488       .  S
C2306      C2689   1.486       .  S
C2307      O2308   1.267       .  A
C2307      C2677   1.475       .  S
O2309      C2324   1.260       .  A
O2309     Al2317   1.937       .  S
C2310      O2320   1.259       .  A
C2310      O2311   1.260       .  A
C2310      C2692   1.469       .  S
O2311     Al2313   1.915       .  S
O2312      C2314   1.260       .  A
O2312     Al2313   1.854       .  S
Al2313     O2321   1.882       .  S
Al2313     O2323   1.893       .  S
Al2313     O2322   1.773       .  S
C2314      O2327   1.272       .  A
C2314      C2653   1.497       .  S
O2315      C2325   1.260       .  A
O2315     Al2317   1.904       .  S
O2316      C2329   1.261       .  A
O2316     Al2326   1.868       .  S
Al2317     O2330   1.927       .  S
Al2317     O2327   1.963       .  S
Al2317     O2322   1.789       .  S
O2318      C2325   1.257       .  A
O2318     Al2326   1.900       .  S
O2319      C2328   1.268       .  A
O2319     Al2326   1.944       .  S
O2320     Al2326   1.910       .  S
O2321      C2328   1.260       .  A
O2322     Al2326   1.793       .  S
O2323      C2324   1.253       .  A
C2324      C2812   1.486       .  S
C2325      C2641   1.493       .  S
C2328      C2788   1.482       .  S
C2329      O2330   1.269       .  A
C2329      C2629   1.468       .  S
O2331      C2346   1.265       .  A
O2331     Al2339   1.948       .  S
C2332      O2342   1.267       .  A
C2332      O2333   1.259       .  A
C2332      C2800   1.482       .  S
O2333     Al2335   1.871       .  S
O2334      C2336   1.263       .  A
O2334     Al2335   1.889       .  S
Al2335     O2343   1.889       .  S
Al2335     O2345   1.900       .  S
Al2335     O2344   1.768       .  S
C2336      O2349   1.269       .  A
C2336      C2656   1.491       .  S
O2337      C2347   1.262       .  A
O2337     Al2339   1.930       .  S
O2338      C2351   1.268       .  A
O2338     Al2348   1.917       .  S
Al2339     O2352   1.893       .  S
Al2339     O2349   1.942       .  S
Al2339     O2344   1.797       .  S
O2340      C2347   1.254       .  A
O2340     Al2348   1.880       .  S
O2341      C2350   1.253       .  A
O2341     Al2348   1.900       .  S
O2342     Al2348   1.933       .  S
O2343      C2350   1.254       .  A
O2344     Al2348   1.794       .  S
O2345      C2346   1.260       .  A
C2346      C2704   1.490       .  S
C2347      C2869   1.489       .  S
C2350      C2716   1.469       .  S
C2351      O2352   1.266       .  A
C2351      C2908   1.481       .  S
O2353      C2368   1.263       .  A
O2353     Al2361   1.919       .  S
C2354      O2364   1.254       .  A
C2354      O2355   1.264       .  A
C2354      C2608   1.467       .  S
O2355     Al2357   1.926       .  S
O2356      C2358   1.251       .  A
O2356     Al2357   1.848       .  S
Al2357     O2365   1.848       .  S
Al2357     O2367   1.935       .  S
Al2357     O2366   1.756       .  S
C2358      O2371   1.276       .  A
C2358      C2617   1.499       .  S
O2359      C2369   1.267       .  A
O2359     Al2361   1.901       .  S
O2360      C2373   1.256       .  A
O2360     Al2370   1.864       .  S
Al2361     O2374   1.951       .  S
Al2361     O2371   1.990       .  S
Al2361     O2366   1.781       .  S
O2362      C2369   1.268       .  A
O2362     Al2370   1.927       .  S
O2363      C2372   1.270       .  A
O2363     Al2370   1.959       .  S
O2364     Al2370   1.889       .  S
O2365      C2372   1.252       .  A
O2366     Al2370   1.776       .  S
O2367      C2368   1.265       .  A
C2368      C2596   1.482       .  S
C2369      C2668   1.492       .  S
C2372      C2581   1.489       .  S
C2373      O2374   1.270       .  A
C2373      C2632   1.476       .  S
O2375     Al2383   1.924       .  S
C2376      O2386   1.263       .  A
C2376      O2377   1.259       .  A
C2376      C2548   1.479       .  S
O2377     Al2379   1.895       .  S
O2378      C2380   1.257       .  A
O2378     Al2379   1.876       .  S
Al2379     O2387   1.892       .  S
Al2379     O2389   1.907       .  S
Al2379     O2388   1.766       .  S
C2380      C2620   1.470       .  S
O2381      C2391   1.261       .  A
O2381     Al2383   1.893       .  S
O2382     Al2392   1.879       .  S
Al2383     O2396   1.934       .  S
Al2383     O2393   1.959       .  S
O2384     Al2392   1.913       .  S
O2385      C2394   1.266       .  A
O2385     Al2392   1.923       .  S
O2386     Al2392   1.927       .  S
O2387      C2394   1.263       .  A
O2388     Al2392   1.790       .  S
O2389      C2390   1.258       .  A
C2390      C2572   1.482       .  S
C2391      C3016   1.482       .  S
C2394      C2557   1.485       .  S
C2395      O2396   1.268       .  A
C2395      C2944   1.479       .  S
O2397      C2412   1.260       .  A
O2397     Al2405   1.921       .  S
C2398      O2408   1.264       .  A
C2398      O2399   1.270       .  A
C2398      C2521   1.466       .  S
O2399     Al2401   1.928       .  S
O2400      C2402   1.257       .  A
O2400     Al2401   1.855       .  S
Al2401     O2409   1.890       .  S
Al2401     O2411   1.882       .  S
Al2401     O2410   1.770       .  S
C2402      O2415   1.266       .  A
C2402      C2533   1.489       .  S
O2403      C2413   1.257       .  A
O2403     Al2405   1.921       .  S
O2404      C2417   1.267       .  A
O2404     Al2414   1.866       .  S
Al2405     O2418   1.941       .  S
Al2405     O2415   1.929       .  S
Al2405     O2410   1.789       .  S
O2406      C2413   1.251       .  A
O2406     Al2414   1.886       .  S
O2407      C2416   1.258       .  A
O2407     Al2414   1.935       .  S
O2408     Al2414   1.899       .  S
O2409      C2416   1.252       .  A
O2410     Al2414   1.796       .  S
O2411      C2412   1.254       .  A
C2412      C2569   1.484       .  S
C2413      C2644   1.498       .  S
C2416      C2605   1.481       .  S
C2417      O2418   1.277       .  A
C2417      C2737   1.466       .  S
O2419      C2434   1.264       .  A
O2419     Al2427   1.936       .  S
C2420      O2430   1.261       .  A
C2420      O2421   1.259       .  A
C2420      C2584   1.472       .  S
O2421     Al2423   1.886       .  S
O2422      C2424   1.260       .  A
O2422     Al2423   1.880       .  S
Al2423     O2431   1.898       .  S
Al2423     O2433   1.895       .  S
Al2423     O2432   1.770       .  S
C2424      O2437   1.268       .  A
C2424      C2512   1.474       .  S
O2425      C2435   1.263       .  A
O2425     Al2427   1.913       .  S
O2426      C2439   1.260       .  A
O2426     Al2436   1.876       .  S
Al2427     O2440   1.923       .  S
Al2427     O2437   1.941       .  S
Al2427     O2432   1.787       .  S
O2428      C2435   1.262       .  A
O2428     Al2436   1.907       .  S
O2429      C2438   1.266       .  A
O2429     Al2436   1.927       .  S
O2430     Al2436   1.922       .  S
O2431      C2438   1.263       .  A
O2432     Al2436   1.785       .  S
O2433      C2434   1.256       .  A
C2434      C2497   1.482       .  S
C2435      C2749   1.493       .  S
C2438      C2524   1.484       .  S
C2439      O2440   1.266       .  A
C2439      C2680   1.472       .  S
O2441      C3500   1.263       .  A
O2441     Al2449   1.922       .  S
C2442      O2452   1.255       .  A
C2442      O2443   1.259       .  A
C2442      C2485   1.464       .  S
O2443     Al2445   1.902       .  S
O2444      C2446   1.258       .  A
O2444     Al2445   1.886       .  S
Al2445     O2453   1.870       .  S
Al2445     O2455   1.925       .  S
Al2445     O2454   1.766       .  S
C2446      O3503   1.266       .  A
C2446      C2509   1.476       .  S
O2447      C2457   1.265       .  A
O2447     Al2449   1.899       .  S
O2448      C3505   1.254   1_545  A
O2448     Al2458   1.868       .  S
Al2449     O2462   1.923       .  S
Al2449     O2459   1.948       .  S
Al2449     O3498   1.788       .  S
O2450      C3501   1.268   1_545  A
O2450     Al2458   1.924       .  S
O2451      C2460   1.267       .  A
O2451     Al2458   1.946       .  S
O2452     Al2458   1.893       .  S
O2453      C2460   1.261       .  A
O2454     Al3493   1.789       .  S
O2454     Al2458   1.784       .  S
O2455      C2456   1.264       .  A
C2456      O3485   1.264       .  A
C2456      C2593   1.481       .  S
C2457      O3494   1.268       .  A
C2457      C2956   1.489       .  S
O2459      C3490   1.267       .  A
C2460      C2545   1.492       .  S
C2461      O3492   1.255       .  A
C2461      O2462   1.262       .  A
C2461      C2860   1.476       .  S
O2463      C2478   1.263       .  A
O2463     Al2471   1.934       .  S
C2464      O2474   1.262       .  A
C2464      O2465   1.265       .  A
C2464      C2560   1.461       .  S
O2465     Al2467   1.916       .  S
O2466      C2468   1.255       .  A
O2466     Al2467   1.860       .  S
Al2467     O2475   1.876       .  S
Al2467     O2477   1.895       .  S
Al2467     O2476   1.761       .  S
C2468      O2481   1.270       .  A
C2468      C2536   1.472       .  S
O2469      C2479   1.263       .  A
O2469     Al2471   1.918       .  S
O2470      C2483   1.260       .  A
O2470     Al2480   1.853       .  S
Al2471     O2484   1.951       .  S
Al2471     O2481   1.954       .  S
Al2471     O2476   1.780       .  S
O2472      C2479   1.258       .  A
O2472     Al2480   1.909       .  S
O2473      C2482   1.265       .  A
O2473     Al2480   1.942       .  S
O2474     Al2480   1.900       .  S
O2475      C2482   1.255       .  A
O2476     Al2480   1.788       .  S
O2477      C2478   1.256       .  A
C2478      C2500   1.484       .  S
C2479      C2845   1.487       .  S
C2482      C2488   1.474       .  S
C2483      O2484   1.273       .  A
C2483      C3001   1.464       .  S
C2485      C2486   1.395       .  A
C2485      C2490   1.408       .  A
C2486      C2487   1.393       .  A
C2486      H2491   1.083       .  S
C2487      C2488   1.412       .  A
C2487      C2494   1.442       .  S
C2488      C2489   1.404       .  A
C2489      C2490   1.401       .  A
C2489      H2492   1.085       .  S
C2490      C2493   1.440       .  S
C2493      N2495   1.156       .  T
C2494      N2496   1.156       .  T
C2497      C2498   1.404       .  A
C2497      C2502   1.411       .  A
C2498      C2499   1.404       .  A
C2498      H2503   1.085       .  S
C2499      C2500   1.411       .  A
C2499      C2506   1.444       .  S
C2500      C2501   1.404       .  A
C2501      C2502   1.408       .  A
C2501      H2504   1.083       .  S
C2502      C2505   1.443       .  S
C2505      N2507   1.157       .  T
C2506      N2508   1.157       .  T
C2509      C2510   1.402       .  A
C2509      C2514   1.412       .  A
C2510      C2511   1.401       .  A
C2510      H2515   1.085       .  S
C2511      C2512   1.411       .  A
C2511      C2518   1.444       .  S
C2512      C2513   1.400       .  A
C2513      C2514   1.401       .  A
C2513      H2516   1.084       .  S
C2514      C2517   1.442       .  S
C2517      N2519   1.157       .  T
C2518      N2520   1.157       .  T
C2521      C2522   1.393       .  A
C2521      C2526   1.407       .  A
C2522      C2523   1.396       .  A
C2522      H2527   1.081   1_556  S
C2523      C2524   1.417       .  A
C2523      C2530   1.441   1_556  S
C2524      C2525   1.407       .  A
C2525      C2526   1.402       .  A
C2525      H2528   1.085       .  S
C2526      C2529   1.443       .  S
C2529      N2531   1.157       .  T
C2530      N2532   1.156       .  T
C2533      C2534   1.406       .  A
C2533      C2538   1.417       .  A
C2534      C2535   1.386       .  A
C2534      H2539   1.085       .  S
C2535      C2536   1.410       .  A
C2535      C2542   1.447       .  S
C2536      C2537   1.403       .  A
C2537      C2538   1.410       .  A
C2537      H2540   1.081       .  S
C2538      C2541   1.442       .  S
C2541      N2543   1.157       .  T
C2542      N2544   1.157       .  T
C2545      C2546   1.402       .  A
C2545      C2550   1.418       .  A
C2546      C2547   1.387       .  A
C2546      H2551   1.084       .  S
C2547      C2548   1.409       .  A
C2547      C2554   1.441       .  S
C2548      C2549   1.406       .  A
C2549      C2550   1.413       .  A
C2549      H2552   1.084       .  S
C2550      C2553   1.441       .  S
C2553      N2555   1.157       .  T
C2554      N2556   1.156       .  T
C2557      C2558   1.411       .  A
C2557      C2562   1.416       .  A
C2558      C2559   1.402       .  A
C2558      H2563   1.084       .  S
C2559      C2560   1.403       .  A
C2559      C2566   1.444       .  S
C2560      C2561   1.397       .  A
C2561      C2562   1.394       .  A
C2561      H2564   1.086       .  S
C2562      C2565   1.442       .  S
C2565      N2567   1.156       .  T
C2566      N2568   1.157       .  T
C2569      C2570   1.404       .  A
C2569      C2574   1.413       .  A
C2570      C2571   1.403       .  A
C2570      H2575   1.085       .  S
C2571      C2572   1.410       .  A
C2571      C2578   1.442   1_655  S
C2572      C2573   1.402       .  A
C2573      C2574   1.408       .  A
C2573      H2576   1.084       .  S
C2574      C2577   1.442       .  S
C2577      N2579   1.157       .  T
C2581      C2582   1.411       .  A
C2581      C2586   1.423       .  A
C2582      C2583   1.409       .  A
C2582      H2587   1.084   1_556  S
C2583      C2584   1.408       .  A
C2583      C2590   1.441   1_556  S
C2584      C2585   1.396       .  A
C2585      C2586   1.385       .  A
C2585      H2588   1.086       .  S
C2586      C2589   1.447       .  S
C2589      N2591   1.157       .  T
C2590      N2592   1.157       .  T
C2593      C2594   1.403       .  A
C2593      C2598   1.411       .  A
C2594      C2595   1.407       .  A
C2594      H2599   1.085       .  S
C2595      C2596   1.412       .  A
C2595      C2602   1.444       .  S
C2596      C2597   1.403       .  A
C2597      C2598   1.406       .  A
C2597      H2600   1.085       .  S
C2598      C2601   1.443       .  S
C2601      N2603   1.157       .  T
C2602      N2604   1.157       .  T
C2605      C2606   1.406       .  A
C2605      C2610   1.413       .  A
C2606      C2607   1.400       .  A
C2606      H2611   1.085       .  S
C2607      C2608   1.404       .  A
C2607      C2614   1.444       .  S
C2608      C2609   1.400       .  A
C2609      C2610   1.402       .  A
C2609      H2612   1.085   1_556  S
C2610      C2613   1.442   1_556  S
C2613      N2615   1.157       .  T
C2614      N2616   1.157       .  T
C2617      C2618   1.412       .  A
C2617      C2622   1.428       .  A
C2618      C2619   1.414       .  A
C2618      H2623   1.084       .  S
C2619      C2620   1.410       .  A
C2619      C2626   1.442       .  S
C2620      C2621   1.388       .  A
C2621      C2622   1.387       .  A
C2621      H2624   1.085       .  S
C2622      C2625   1.445       .  S
C2625      N2627   1.157       .  T
C2626      N2628   1.157       .  T
C2629      C2630   1.398       .  A
C2629      C2634   1.414   1_554  A
C2630      C3675   1.396       .  A
C2630      H2635   1.085       .  S
C2631      C3674   1.396   1_545  A
C2631      C2632   1.418   1_554  A
C2631      C2638   1.445       .  S
C2632      C2633   1.402       .  A
C2633      C3678   1.403   1_545  A
C2633      H2636   1.085       .  S
C2634      C3677   1.400       .  A
C2634      C2637   1.444       .  S
C2637      N2639   1.157       .  T
C2638      N2640   1.157       .  T
C2641      C2642   1.410   1_554  A
C2641      C2646   1.412       .  A
C2642      C2643   1.406       .  A
C2642      H2647   1.085       .  S
C2643      C2644   1.415       .  A
C2643      C2650   1.444       .  S
C2644      C2645   1.411   1_556  A
C2645      C2646   1.400       .  A
C2645      H2648   1.084       .  S
C2646      C2649   1.445       .  S
C2649      N2651   1.157       .  T
C2650      N2652   1.157       .  T
C2653      C2654   1.403       .  A
C2653      C2658   1.417       .  A
C2654      C2655   1.386       .  A
C2654      H2659   1.083       .  S
C2655      C2656   1.415       .  A
C2655      C2662   1.447       .  S
C2656      C2657   1.412       .  A
C2657      C2658   1.419       .  A
C2657      H2660   1.084       .  S
C2658      C2661   1.442       .  S
C2661      N2663   1.157       .  T
C2662      N2664   1.157       .  T
C2665      C2666   1.403       .  A
C2665      C2670   1.413   1_554  A
C2666      H2671   1.085       .  S
C2667      C2668   1.421   1_554  A
C2667      C2674   1.444       .  S
C2669      C2670   1.403       .  A
C2669      H2672   1.084       .  S
C2670      C2673   1.445       .  S
C2673      N2675   1.157       .  T
C2674      N2676   1.157       .  T
C2677      C2678   1.405       .  A
C2677      C2682   1.413       .  A
C2678      C2679   1.402   1_554  A
C2678      H2683   1.085       .  S
C2679      C2680   1.412       .  A
C2679      C2686   1.444       .  S
C2680      C2681   1.400       .  A
C2681      C2682   1.394   1_556  A
C2681      H2684   1.086       .  S
C2682      C2685   1.444       .  S
C2685      N2687   1.157       .  T
C2686      N2688   1.157       .  T
C2689      C2690   1.407       .  A
C2689      C2694   1.413       .  A
C2690      C2691   1.399       .  A
C2690      H2695   1.084       .  S
C2691      C2692   1.405       .  A
C2691      C2698   1.442   1_554  S
C2692      C2693   1.401       .  A
C2693      C2694   1.403       .  A
C2693      H2696   1.083       .  S
C2694      C2697   1.440       .  S
C2697      N2699   1.156       .  T
C2698      N2700   1.156       .  T
C2701      C2702   1.403       .  A
C2701      C2706   1.406       .  A
C2702      C2703   1.408       .  A
C2702      H2707   1.084       .  S
C2703      C2704   1.416       .  A
C2703      C2710   1.443       .  S
C2704      C2705   1.403       .  A
C2705      C2706   1.400       .  A
C2705      H2708   1.082       .  S
C2706      C2709   1.441       .  S
C2709      N2711   1.157       .  T
C2710      N2712   1.157       .  T
C2713      C2714   1.401       .  A
C2713      C2718   1.410       .  A
C2714      C2715   1.400       .  A
C2714      H2719   1.082       .  S
C2715      C2716   1.406       .  A
C2715      C2722   1.442       .  S
C2716      C2717   1.402       .  A
C2717      C2718   1.402       .  A
C2717      H2720   1.085       .  S
C2718      C2721   1.444       .  S
C2721      N2723   1.157       .  T
C2722      N2724   1.157       .  T
C2725      C2726   1.398       .  A
C2725      C2730   1.411       .  A
C2726      C2727   1.399       .  A
C2726      H2731   1.081       .  S
C2727      C2728   1.411       .  A
C2727      C2734   1.444       .  S
C2728      C2729   1.401       .  A
C2729      C2730   1.400       .  A
C2730      C2733   1.444       .  S
C2734      N2736   1.157       .  T
C2737      C2738   1.403   1_556  A
C2738      H2743   1.085       .  S
C2739      C2740   1.407       .  A
C2740      C2741   1.405   1_554  A
C2741      C2742   1.400       .  A
C2741      H2744   1.085       .  S
C2742      C2745   1.444       .  S
C2745      N2747   1.157       .  T
C2746      N2748   1.157       .  T
C2749      C2750   1.407   1_556  A
C2749      C2754   1.414   1_545  A
C2750      C3795   1.402   1_545  A
C2750      H2755   1.085       .  S
C2751      C3794   1.401       .  A
C2751      C2752   1.416       .  A
C2751      C2758   1.445       .  S
C2752      C2753   1.411   1_554  A
C2753      C3798   1.405       .  A
C2753      H2756   1.084       .  S
C2754      C3797   1.406       .  A
C2754      C2757   1.445       .  S
C2757      N2759   1.158       .  T
C2758      N2760   1.157       .  T
C2761      C2762   1.404       .  A
C2761      C2766   1.416       .  A
C2762      C2763   1.389       .  A
C2762      H2767   1.086       .  S
C2763      C2764   1.414       .  A
C2763      C2770   1.446       .  S
C2764      C2765   1.405       .  A
C2765      C2766   1.408       .  A
C2765      H2768   1.084       .  S
C2766      C2769   1.442   1_554  S
C2769      N2771   1.157       .  T
C2770      N2772   1.157       .  T
C2773      C2774   1.411       .  A
C2773      C2778   1.418       .  A
C2774      C2775   1.416       .  A
C2774      H2779   1.084       .  S
C2775      C2776   1.412       .  A
C2775      C2782   1.442       .  S
C2776      C2777   1.398       .  A
C2777      C2778   1.397       .  A
C2777      H2780   1.086       .  S
C2778      C2781   1.444       .  S
C2781      N2783   1.157       .  T
C2782      N2784   1.157       .  T
C2785      C2786   1.397       .  A
C2785      C2790   1.408       .  A
C2786      C2787   1.392       .  A
C2786      H2791   1.082       .  S
C2787      C2788   1.411       .  A
C2787      C2794   1.441       .  S
C2788      C2789   1.407       .  A
C2789      C2790   1.405       .  A
C2789      H2792   1.081   1_554  S
C2790      C2793   1.443   1_554  S
C2793      N2795   1.157       .  T
C2794      N2796   1.155       .  T
C2797      C2798   1.401       .  A
C2797      C2802   1.420       .  A
C2798      C2799   1.392       .  A
C2798      H2803   1.084       .  S
C2799      C2800   1.412       .  A
C2799      C2806   1.439       .  S
C2800      C2801   1.403       .  A
C2801      C2802   1.406       .  A
C2801      H2804   1.084       .  S
C2802      C2805   1.444       .  S
C2805      N2807   1.157       .  T
C2806      N2808   1.155       .  T
C2809      C2810   1.403       .  A
C2809      C2814   1.410       .  A
C2810      C2811   1.403       .  A
C2810      H2815   1.085       .  S
C2811      C2812   1.410       .  A
C2811      C2818   1.442       .  S
C2812      C2813   1.406       .  A
C2813      C2814   1.412       .  A
C2813      H2816   1.083       .  S
C2814      C3861   1.443       .  S
C2817      C3858   1.442   1_545  S
C2817      N2819   1.157       .  T
C2818      N2820   1.156       .  T
C2821      C2822   1.403       .  A
C2821      C2826   1.409       .  A
C2822      C2823   1.387       .  A
C2822      H2827   1.087       .  S
C2823      C2824   1.408       .  A
C2823      C2830   1.447       .  S
C2824      C2825   1.407       .  A
C2825      C2826   1.411       .  A
C2825      H2828   1.084       .  S
C2826      C2829   1.441       .  S
C2829      N2831   1.157       .  T
C2830      N2832   1.157       .  T
C2833      C2834   1.401       .  A
C2833      C2838   1.409       .  A
C2834      C2835   1.400       .  A
C2834      H2839   1.085       .  S
C2835      C2836   1.411       .  A
C2835      C2842   1.442       .  S
C2836      C2837   1.402       .  A
C2837      C2838   1.400       .  A
C2837      H2840   1.085       .  S
C2838      C3885   1.444       .  S
C2841      C3882   1.443       .  S
C2841      N2843   1.157       .  T
C2842      N2844   1.157       .  T
C2845      C2846   1.407       .  A
C2845      C2850   1.410       .  A
C2846      C2847   1.405       .  A
C2846      H2851   1.085       .  S
C2847      C2848   1.415       .  A
C2847      C2854   1.444       .  S
C2848      C2849   1.409       .  A
C2849      C2850   1.401       .  A
C2849      H2852   1.084       .  S
C2850      C2853   1.442       .  S
C2853      N2855   1.156       .  T
C2854      N2856   1.157       .  T
C2857      C2858   1.401       .  A
C2857      C2862   1.410       .  A
C2858      C2859   1.390       .  A
C2858      H2863   1.086       .  S
C2859      C2860   1.414       .  A
C2859      C2866   1.446       .  S
C2860      C2861   1.407       .  A
C2861      C2862   1.404       .  A
C2861      H2864   1.084       .  S
C2862      C2865   1.444       .  S
C2865      N2867   1.157       .  T
C2866      N2868   1.157       .  T
C2869      C2870   1.409       .  A
C2869      C2874   1.411       .  A
C2870      C2871   1.404       .  A
C2870      H2875   1.085       .  S
C2871      C2872   1.413       .  A
C2871      C2878   1.444       .  S
C2872      C2873   1.411       .  A
C2873      C2874   1.404       .  A
C2873      H2876   1.085       .  S
C2874      C2877   1.444       .  S
C2877      N2879   1.157       .  T
C2878      N2880   1.157       .  T
C2881      C2882   1.407       .  A
C2881      C2886   1.413       .  A
C2882      C2883   1.398       .  A
C2882      H2887   1.085   1_655  S
C2883      C2884   1.406       .  A
C2883      C2890   1.444       .  S
C2884      C2885   1.402       .  A
C2885      C2886   1.399       .  A
C2885      H2888   1.085       .  S
C2889      N2891   1.157       .  T
C2890      N2892   1.157       .  T
C2893      C2894   1.406       .  A
C2893      C2898   1.417       .  A
C2894      C2895   1.389       .  A
C2894      H2899   1.085       .  S
C2895      C2896   1.416       .  A
C2895      C2902   1.448       .  S
C2896      C2897   1.407       .  A
C2897      C2898   1.411       .  A
C2897      H2900   1.085       .  S
C2898      C2901   1.442       .  S
C2901      N2903   1.157       .  T
C2902      N2904   1.158       .  T
C2905      C2906   1.406       .  A
C2905      C2910   1.417       .  A
C2906      C2907   1.402       .  A
C2906      H2911   1.084       .  S
C2907      C2908   1.412       .  A
C2907      C2914   1.444       .  S
C2908      C2909   1.404       .  A
C2909      C2910   1.399       .  A
C2909      H2912   1.086       .  S
C2910      C2913   1.445       .  S
C2913      N2915   1.158       .  T
C2914      N2916   1.157       .  T
C2917      C2918   1.402       .  A
C2917      C2922   1.415       .  A
C2918      C2919   1.403       .  A
C2918      H3967   1.085       .  S
C2919      C2920   1.422       .  A
C2919      C2926   1.445       .  S
C2920      C2921   1.406       .  A
C2921      C2922   1.402       .  A
C2921      H2924   1.084       .  S
C2922      C2925   1.445       .  S
H2923      C3962   1.085       .  S
C2925      N2927   1.157       .  T
C2926      N3972   1.158       .  T
N2928      C3970   1.157       .  T
C2929      C3200   1.473       .  S
C2929      C2930   1.402       .  A
C2929      C2934   1.411       .  A
C2930      C2931   1.400       .  A
C2930      H2935   1.084       .  S
C2931      C2932   1.411       .  A
C2931      C2938   1.443       .  S
C2932      C2933   1.403       .  A
C2933      C2934   1.403       .  A
C2933      H2936   1.083       .  S
C2934      C2937   1.444       .  S
C2937      N3983   1.157       .  T
C2938      N2940   1.157       .  T
N2939      C3981   1.157       .  T
C2941      C2942   1.404       .  A
C2941      C2946   1.412       .  A
C2942      C2943   1.402       .  A
C2942      H2947   1.085       .  S
C2943      C2944   1.412       .  A
C2943      C2950   1.444       .  S
C2944      C2945   1.404       .  A
C2945      C2946   1.398       .  A
C2946      C2949   1.446       .  S
C2950      N2952   1.157       .  T
C2953      C2954   1.407       .  A
C2953      C2958   1.420       .  A
C2954      C2955   1.400       .  A
C2954      H2959   1.085       .  S
C2955      C2956   1.415       .  A
C2955      C2962   1.444       .  S
C2956      C2957   1.404       .  A
C2957      C2958   1.402       .  A
C2957      H4004   1.085       .  S
C2958      C2961   1.445       .  S
H2960      C4001   1.085       .  S
C2961      N2963   1.158       .  T
C2962      N2964   1.157       .  T
C2965      C2966   1.402       .  A
C2965      C2970   1.416       .  A
C2966      C2967   1.391       .  A
C2966      H2971   1.085       .  S
C2967      C2968   1.414       .  A
C2967      C2974   1.443       .  S
C2968      C2969   1.405       .  A
C2969      C2970   1.403       .  A
C2969      H2972   1.085       .  S
C2970      C2973   1.442       .  S
C2973      N2975   1.157   1_655  T
C2974      N2976   1.156       .  T
C2977      C2978   1.402       .  A
C2977      C4026   1.412       .  A
C2978      C2979   1.402       .  A
C2978      H2983   1.085       .  S
C2979      C4024   1.410       .  A
C2979      C2986   1.444       .  S
C2980      C4023   1.410   1_545  A
C2980      C2981   1.404       .  A
C2981      C2982   1.403       .  A
C2981      H2984   1.085       .  S
C2982      C4021   1.413   1_545  A
C2982      C2985   1.444       .  S
C2985      N2987   1.157       .  T
C2986      N2988   1.157       .  T
C2989      C2994   1.411       .  A
C2990      C2991   1.390       .  A
C2990      H2995   1.085       .  S
C2991      C2992   1.414       .  A
C2991      C2998   1.443       .  S
C2993      C2994   1.416   1_455  A
C2993      H2996   1.084       .  S
C2994      C2997   1.441       .  S
C2997      N2999   1.157       .  T
C2998      N3000   1.156       .  T
C3001      C3002   1.397       .  A
C3001      C3006   1.406       .  A
C3002      C3003   1.390       .  A
C3002      H3007   1.087       .  S
C3003      C3004   1.417       .  A
C3003      C3010   1.446       .  S
C3004      C3005   1.410       .  A
C3005      C3006   1.405       .  A
C3005      H3008   1.084       .  S
C3006      C3009   1.443       .  S
C3009      N3011   1.157       .  T
C3010      N3012   1.157       .  T
C3013      C3014   1.406       .  A
C3013      C3018   1.423       .  A
C3014      C3015   1.401       .  A
C3014      H3019   1.084       .  S
C3015      C3016   1.414       .  A
C3016      C3017   1.400       .  A
C3017      C3018   1.398       .  A
C3017      H3020   1.085       .  S
C3018      C3021   1.446       .  S
C3021      N3023   1.158       .  T
C3022      N3024   1.157       .  T
C3025      C3026   1.398       .  A
C3025      C3030   1.408       .  A
C3026      C3027   1.399       .  A
C3026      H3031   1.078       .  S
C3027      C3028   1.408       .  A
C3027      C3034   1.442       .  S
C3028      C3262   1.468   1_545  S
C3028      C3029   1.402       .  A
C3029      C3030   1.401       .  A
C3029      H3032   1.085   1_545  S
C3033      N3035   1.157       .  T
C3034      N3036   1.157       .  T
C3037      C3038   1.402       .  A
C3037      C3042   1.407       .  A
C3038      C3039   1.402       .  A
C3038      H3043   1.080       .  S
C3039      C3040   1.408       .  A
C3039      C4090   1.442   1_545  S
C3040      C3178   1.465   1_545  S
C3040      C3041   1.400       .  A
C3041      C3042   1.395       .  A
C3041      H3044   1.082       .  S
C3042      C3045   1.443       .  S
C3045      N3047   1.157       .  T
C3046      C4083   1.442       .  S
C3046      N3048   1.157       .  T
C3049      C3050   1.397       .  A
C3049      C3054   1.412       .  A
C3050      C3051   1.389       .  A
C3050      H3055   1.085       .  S
C3051      C3052   1.420       .  A
C3051      C3058   1.446       .  S
C3052      C3053   1.412       .  A
C3053      C3054   1.417       .  A
C3053      H3056   1.084       .  S
C3054      C3057   1.442       .  S
C3057      N3059   1.157       .  T
C3058      N3060   1.157       .  T
C3061      C3062   1.406       .  A
C3061      C3066   1.422       .  A
C3062      C3063   1.404       .  A
C3062      H3067   1.085       .  S
C3063      C3064   1.417       .  A
C3064      C3065   1.401       .  A
C3065      C3066   1.399       .  A
C3065      H3068   1.085       .  S
C3066      C3069   1.445       .  S
C3069      N3071   1.158       .  T
C3070      N3072   1.157       .  T
C3073      C3074   1.402       .  A
C3073      C3078   1.410       .  A
C3074      C3075   1.398       .  A
C3074      H3079   1.085       .  S
C3075      C3076   1.412       .  A
C3075      C3082   1.444       .  S
C3076      C3077   1.403       .  A
C3077      C3078   1.398       .  A
C3077      H3080   1.085       .  S
C3078      C3081   1.443       .  S
C3081      N3083   1.157       .  T
C3082      N4128   1.157       .  T
N3084      C4126   1.157       .  T
C3085      C3152   1.484       .  S
C3085      C3086   1.410       .  A
C3085      C3090   1.412       .  A
C3086      C3087   1.398       .  A
C3086      H4135   1.084       .  S
C3087      C3088   1.403       .  A
C3087      C3094   1.444       .  S
C3088      C3089   1.402       .  A
C3089      C3090   1.400       .  A
C3089      H3092   1.085       .  S
C3090      C3093   1.442       .  S
H3091      C4130   1.084       .  S
C3093      N3095   1.157       .  T
C3094      N3096   1.157       .  T
C3097      C3098   1.400       .  A
C3097      C3102   1.408   1_655  A
C3098      H3103   1.075       .  S
C3099      C3100   1.409       .  A
C3099      C3106   1.441       .  S
C3100      C3101   1.406       .  A
C3101      H3104   1.084       .  S
C3102      C3105   1.443       .  S
C3105      N3107   1.157       .  T
C3106      N3108   1.156       .  T
C3109      C3110   1.406       .  A
C3109      C3114   1.416       .  A
C3110      C4155   1.403       .  A
C3110      H3115   1.081       .  S
C3111      C4154   1.401       .  A
C3111      C3112   1.406       .  A
C3111      C3118   1.442       .  S
C3112      C4157   1.400   1_545  A
C3113      C4156   1.401       .  A
C3113      C3114   1.403       .  A
C3113      H3116   1.084       .  S
C3114      C3117   1.444       .  S
C3117      N3119   1.157       .  T
C3118      N3120   1.157       .  T
C3121      C3122   1.400       .  A
C3121      C3126   1.407       .  A
C3122      C3123   1.391       .  A
C3122      H3127   1.085       .  S
C3123      C3124   1.416       .  A
C3123      C3130   1.445       .  S
C3124      C3125   1.410       .  A
C3125      C3126   1.405       .  A
C3125      H3128   1.084       .  S
C3129      N3131   1.157   1_455  T
C3130      N3132   1.157       .  T
O3133      C3148   1.257       .  A
O3133     Al3141   1.916       .  S
C3134      O3144   1.264       .  A
C3134      O3135   1.260       .  A
O3135     Al3137   1.888       .  S
O3136      C3138   1.259       .  A
O3136     Al3137   1.882       .  S
Al3137     O3145   1.908       .  S
Al3137     O3147   1.875       .  S
Al3137     O3146   1.781       .  S
C3138      O3151   1.264       .  A
C3138      C4141   1.471       .  S
O3139      C3149   1.259       .  A
O3139     Al3141   1.915       .  S
O3140      C3153   1.263       .  A
O3140     Al3150   1.876       .  S
Al3141     O3154   1.914       .  S
Al3141     O3151   1.923       .  S
Al3141     O3146   1.800       .  S
O3142      C3149   1.251       .  A
O3142     Al3150   1.879       .  S
O3143      C3152   1.258       .  A
O3143     Al3150   1.902       .  S
O3144     Al3150   1.914       .  S
O3145      C3152   1.260       .  A
O3146     Al3150   1.797       .  S
O3147      C3148   1.252       .  A
C3148      C4156   1.474       .  S
C3149      C4105   1.495       .  S
C3153      O3154   1.267       .  A
C3153      C4117   1.464       .  S
O3155      C3170   1.263       .  A
O3155     Al3163   1.926       .  S
C3156      O3166   1.257       .  A
C3156      O3157   1.260       .  A
O3157     Al3159   1.910       .  S
O3158      C3160   1.264       .  A
O3158     Al3159   1.899       .  S
Al3159     O3167   1.890       .  S
Al3159     O3169   1.903       .  S
Al3159     O3168   1.766       .  S
C3160      O3173   1.270       .  A
C3160      C4144   1.484       .  S
O3161      C3171   1.266       .  A
O3161     Al3163   1.905       .  S
O3162      C3175   1.255       .  A
O3162     Al3172   1.864       .  S
Al3163     O3176   1.936       .  S
Al3163     O3173   1.952       .  S
Al3163     O3168   1.789       .  S
O3164      C3171   1.261       .  A
O3164     Al3172   1.896       .  S
O3165      C3174   1.264       .  A
O3165     Al3172   1.931       .  S
O3166     Al3172   1.904       .  S
O3167      C3174   1.262       .  A
O3168     Al3172   1.784       .  S
O3169      C3170   1.261       .  A
C3170      C4093   1.481       .  S
C3171      C4057   1.489       .  S
C3174      C4081   1.474       .  S
C3175      O3176   1.266       .  A
C3175      C4048   1.482       .  S
O3177      C3192   1.266       .  A
O3177     Al3185   1.940       .  S
C3178      O3188   1.257       .  A
C3178      O3179   1.256       .  A
O3179     Al3181   1.886       .  S
O3180      C3182   1.260       .  A
O3180     Al3181   1.888       .  S
Al3181     O3189   1.877       .  S
Al3181     O3191   1.906       .  S
Al3181     O3190   1.766       .  S
C3182      O3195   1.270       .  A
C3182      C4021   1.484       .  S
O3183      C3193   1.267       .  A
O3183     Al3185   1.902       .  S
O3184      C3197   1.255       .  A
O3184     Al3194   1.877       .  S
Al3185     O3198   1.928       .  S
Al3185     O3195   1.956       .  S
Al3185     O3190   1.783       .  S
O3186      C3193   1.266       .  A
O3186     Al3194   1.921       .  S
O3187      C3196   1.266       .  A
O3187     Al3194   1.928       .  S
O3188     Al3194   1.904       .  S
O3189      C3196   1.262       .  A
O3190     Al3194   1.784       .  S
O3191      C3192   1.261       .  A
C3192      C4036   1.488       .  S
C3193      C3997   1.498       .  S
C3197      O3198   1.263       .  A
C3197      C3985   1.478       .  S
O3199      C3214   1.270       .  A
O3199     Al3207   1.942       .  S
C3200      O3210   1.255       .  A
C3200      O3201   1.251       .  A
O3201     Al3203   1.874       .  S
O3202      C3204   1.258       .  A
O3202     Al3203   1.891       .  S
Al3203     O3211   1.879       .  S
Al3203     O3213   1.887       .  S
Al3203     O3212   1.772       .  S
C3204      O3217   1.263       .  A
C3204      C4024   1.480       .  S
O3205      C3215   1.270       .  A
O3205     Al3207   1.906       .  S
O3206      C3219   1.252       .  A
O3206     Al3216   1.884       .  S
Al3207     O3220   1.912       .  S
Al3207     O3217   1.938       .  S
Al3207     O3212   1.801       .  S
O3208      C3215   1.267       .  A
O3208     Al3216   1.910       .  S
O3209      C3218   1.265       .  A
O3209     Al3216   1.918       .  S
O3210     Al3216   1.909       .  S
O3211      C3218   1.261       .  A
O3212     Al3216   1.791       .  S
O3213      C3214   1.261       .  A
C3214      C4096   1.490       .  S
C3215      C3964   1.494       .  S
C3218      C4168   1.485       .  S
C3219      O3220   1.257       .  A
C3219      C3949   1.488       .  S
O3221      C3236   1.262       .  A
O3221     Al3229   1.940       .  S
C3222      O3232   1.260       .  A
C3222      O3223   1.260       .  A
C3222      C4132   1.465       .  S
O3223     Al3225   1.906       .  S
O3224      C3226   1.260       .  A
O3224     Al3225   1.861       .  S
Al3225     O3233   1.886       .  S
Al3225     O3235   1.880       .  S
Al3225     O3234   1.766       .  S
C3226      O3239   1.271       .  A
C3226      C3937   1.494       .  S
O3227      C3237   1.264       .  A
O3227     Al3229   1.926       .  S
O3228      C3241   1.261       .  A
O3228     Al3238   1.870       .  S
Al3229     O3242   1.934       .  S
Al3229     O3239   1.953       .  S
Al3229     O3234   1.783       .  S
O3230      C3237   1.257       .  A
O3230     Al3238   1.896       .  S
O3231      C3240   1.266       .  A
O3231     Al3238   1.946       .  S
O3232     Al3238   1.913       .  S
O3233      C3240   1.259       .  A
O3234     Al3238   1.786       .  S
O3235      C3236   1.254       .  A
C3236      C4033   1.486       .  S
C3237      C3916   1.495       .  S
C3241      O3242   1.270       .  A
C3241      C3928   1.465       .  S
O3243      C3258   1.265       .  A
O3243     Al3251   1.941       .  S
C3244      O3254   1.269       .  A
C3244      O3245   1.260       .  A
C3244      C4012   1.482       .  S
O3245     Al3247   1.873       .  S
O3246      C3248   1.262       .  A
O3246     Al3247   1.894       .  S
Al3247     O3255   1.880       .  S
Al3247     O3257   1.896       .  S
Al3247     O3256   1.774       .  S
C3248      O3261   1.268       .  A
C3248      C3940   1.486       .  S
O3249      C3259   1.259       .  A
O3249     Al3251   1.920       .  S
O3250      C3263   1.269       .  A
O3250     Al3260   1.925       .  S
Al3251     O3264   1.871       .  S
Al3251     O3261   1.929       .  S
Al3251     O3256   1.793       .  S
O3252      C3259   1.252       .  A
O3252     Al3260   1.880       .  S
O3253      C3262   1.252       .  A
O3253     Al3260   1.900       .  S
O3254     Al3260   1.930       .  S
O3255      C3262   1.252       .  A
O3256     Al3260   1.792       .  S
O3257      C3258   1.260       .  A
C3258      C4153   1.485       .  S
C3259      C3892   1.488       .  S
C3263      O3264   1.264       .  A
C3263      C3901   1.473       .  S
O3265     Al3273   1.934       .  S
C3266      O3276   1.260       .  A
C3266      O3267   1.253       .  A
C3266      C3865   1.477       .  S
O3267     Al3269   1.871       .  S
O3268      C3270   1.260       .  A
O3268     Al3269   1.875       .  S
Al3269     O3277   1.879       .  S
Al3269     O3279   1.907       .  S
Al3269     O3278   1.769       .  S
C3270      O3283   1.269       .  A
C3270      C3877   1.472       .  S
O3271      C3281   1.266       .  A
O3271     Al3273   1.908       .  S
O3272     Al3282   1.884       .  S
Al3273     O3286   1.897       .  S
O3274     Al3282   1.911       .  S
O3275      C3284   1.270       .  A
O3275     Al3282   1.943       .  S
O3276     Al3282   1.933       .  S
O3277      C3284   1.265       .  A
O3278     Al3282   1.791       .  S
O3279      C3280   1.256       .  A
C3280      C3853   1.484       .  S
C3281      C3961   1.486       .  S
C3284      C3841   1.491       .  S
C3285      O3286   1.258       .  A
C3285      C4120   1.466       .  S
O3287      C3302   1.267       .  A
O3287     Al3295   1.954       .  S
C3288      O3298   1.252       .  A
C3288      O3289   1.251       .  A
C3288      C3829   1.467       .  S
O3289     Al3291   1.881       .  S
O3290      C3292   1.262       .  A
O3290     Al3291   1.886       .  S
Al3291     O3299   1.871       .  S
Al3291     O3301   1.911       .  S
Al3291     O3300   1.773       .  S
C3292      O3305   1.269       .  A
C3292      C3880   1.475       .  S
O3293      C3303   1.267       .  A
O3293     Al3295   1.909       .  S
O3294      C3307   1.254       .  A
O3294     Al3304   1.875       .  S
Al3295     O3308   1.899       .  S
Al3295     O3305   1.946       .  S
Al3295     O3300   1.784       .  S
O3296      C3303   1.267       .  A
O3296     Al3304   1.913       .  S
O3297      C3306   1.272       .  A
O3297     Al3304   1.944       .  S
O3298     Al3304   1.903       .  S
O3299      C3306   1.265       .  A
O3300     Al3304   1.791       .  S
O3301      C3302   1.258       .  A
C3302      C3817   1.496       .  S
C3303      C3796   1.499       .  S
C3306      C3805   1.490       .  S
C3307      O3308   1.257       .  A
C3307      C3784   1.469       .  S
O3309      C3324   1.265       .  A
C3310      O3320   1.254       .  A
C3310      O3311   1.256       .  A
C3310      C3757   1.468       .  S
O3311     Al3313   1.894       .  S
O3312      C3314   1.256       .  A
O3312     Al3313   1.886       .  S
Al3313     O3321   1.881       .  S
Al3313     O3323   1.928       .  S
Al3313     O3322   1.773       .  S
C3314      O3327   1.262       .  A
C3314      C3772   1.473       .  S
O3315      C3325   1.269       .  A
O3315     Al3317   1.910   1_655  S
O3316     Al3326   1.881       .  S
Al3317     O3330   1.916   1_455  S
O3318     Al3326   1.916       .  S
O3319      C3328   1.266       .  A
O3319     Al3326   1.932       .  S
O3320     Al3326   1.900       .  S
O3321      C3328   1.259       .  A
O3322     Al3326   1.791       .  S
O3323      C3324   1.266       .  A
C3324      C3820   1.487       .  S
C3325      C4108   1.490       .  S
C3328      C3868   1.472       .  S
C3329      O3330   1.260   1_455  A
C3329      C3925   1.479   1_455  S
O3331      C3346   1.261       .  A
O3331     Al3339   1.932       .  S
C3332      O3342   1.265       .  A
C3332      O3333   1.259       .  A
C3332      C3808   1.477       .  S
O3333     Al3335   1.893       .  S
O3334      C3336   1.258       .  A
O3334     Al3335   1.875       .  S
Al3335     O3343   1.914       .  S
Al3335     O3345   1.886       .  S
Al3335     O3344   1.777       .  S
C3336      O3349   1.264       .  A
C3336      C3769   1.471       .  S
O3337      C3347   1.259       .  A
O3337     Al3339   1.911       .  S
O3338      C3351   1.262       .  A
O3338     Al3348   1.880       .  S
Al3339     O3352   1.922       .  S
Al3339     O3349   1.931       .  S
Al3339     O3344   1.798       .  S
O3340      C3347   1.257       .  A
O3340     Al3348   1.904       .  S
O3341      C3350   1.262       .  A
O3341     Al3348   1.912       .  S
O3342     Al3348   1.921       .  S
O3343      C3350   1.263       .  A
O3344     Al3348   1.791       .  S
O3345      C3346   1.254       .  A
C3346      C3745   1.480       .  S
C3347      C3709   1.485       .  S
C3350      C3733   1.485       .  S
C3351      O3352   1.267       .  A
C3351      C3721   1.475       .  S
O3353      C3368   1.260       .  A
O3353     Al3361   1.936       .  S
C3354      O3364   1.259       .  A
C3354      O3355   1.258       .  A
C3354      C3736   1.470       .  S
O3355     Al3357   1.911       .  S
O3356      C3358   1.260       .  A
O3356     Al3357   1.854       .  S
Al3357     O3365   1.877       .  S
Al3357     O3367   1.899       .  S
Al3357     O3366   1.772       .  S
C3358      O3371   1.274       .  A
C3358      C3697   1.496       .  S
O3359      C3369   1.260       .  A
O3359     Al3361   1.899       .  S
O3360      C3373   1.261       .  A
O3360     Al3370   1.874       .  S
Al3361     O3374   1.928       .  S
Al3361     O3371   1.968       .  S
Al3361     O3366   1.783       .  S
O3362      C3369   1.258       .  A
O3362     Al3370   1.903       .  S
O3363      C3372   1.271       .  A
O3363     Al3370   1.949       .  S
O3364     Al3370   1.915       .  S
O3365      C3372   1.261       .  A
O3366     Al3370   1.791       .  S
O3367      C3368   1.254       .  A
C3368      C3856   1.486       .  S
C3369      C3685   1.489       .  S
C3372      C3832   1.483       .  S
C3373      O3374   1.269       .  A
C3373      C3673   1.469       .  S
O3375      C3390   1.265       .  A
O3375     Al3383   1.956       .  S
C3376      O3386   1.268       .  A
C3376      O3377   1.258       .  A
C3376      C3844   1.487       .  S
O3377     Al3379   1.869       .  S
O3378      C3380   1.264       .  A
O3378     Al3379   1.892       .  S
Al3379     O3387   1.881       .  S
Al3379     O3389   1.897       .  S
Al3379     O3388   1.769       .  S
C3380      O3393   1.270       .  A
C3380      C3700   1.490       .  S
O3381      C3391   1.262       .  A
O3381     Al3383   1.932       .  S
O3382      C3395   1.269       .  A
O3382     Al3392   1.922       .  S
Al3383     O3396   1.890       .  S
Al3383     O3393   1.937       .  S
Al3383     O3388   1.796       .  S
O3384      C3391   1.253       .  A
O3384     Al3392   1.884       .  S
O3385      C3394   1.252       .  A
O3385     Al3392   1.899       .  S
O3386     Al3392   1.935       .  S
O3387      C3394   1.253       .  A
O3388     Al3392   1.795       .  S
O3389      C3390   1.258       .  A
C3390      C3748   1.492       .  S
C3391      C3913   1.492       .  S
C3394      C3760   1.467       .  S
C3395      O3396   1.266       .  A
C3395      C3952   1.478       .  S
O3397      C3412   1.263       .  A
O3397     Al3405   1.918       .  S
C3398      O3408   1.252       .  A
C3398      O3399   1.263       .  A
C3398      C3652   1.463       .  S
O3399     Al3401   1.921       .  S
O3400      C3402   1.251       .  A
O3400     Al3401   1.855       .  S
Al3401     O3409   1.848       .  S
Al3401     O3411   1.936       .  S
Al3401     O3410   1.758       .  S
C3402      O3415   1.273       .  A
C3402      C3661   1.498       .  S
O3403      C3413   1.267       .  A
O3403     Al3405   1.897       .  S
O3404      C3417   1.255       .  A
O3404     Al3414   1.863       .  S
Al3405     O3418   1.938       .  S
Al3405     O3415   1.980       .  S
Al3405     O3410   1.782       .  S
O3406      C3413   1.269       .  A
O3406     Al3414   1.933       .  S
O3407      C3416   1.272       .  A
O3407     Al3414   1.966       .  S
O3408     Al3414   1.882       .  S
O3409      C3416   1.252       .  A
O3410     Al3414   1.780       .  S
O3411      C3412   1.266       .  A
C3412      C3640   1.483       .  S
C3413      C3712   1.494       .  S
C3416      C3625   1.492       .  S
C3417      O3418   1.266       .  A
C3417      C3676   1.468       .  S
O3419     Al3427   1.926       .  S
C3420      O3430   1.263       .  A
C3420      O3421   1.258       .  A
C3420      C3592   1.476       .  S
O3421     Al3423   1.889       .  S
O3422      C3424   1.256       .  A
O3422     Al3423   1.877       .  S
Al3423     O3431   1.892       .  S
Al3423     O3433   1.904       .  S
Al3423     O3432   1.765       .  S
C3424      C3664   1.470       .  S
O3425      C3435   1.261       .  A
O3425     Al3427   1.887       .  S
O3426     Al3436   1.881       .  S
Al3427     O3440   1.931       .  S
Al3427     O3437   1.959       .  S
O3428     Al3436   1.913       .  S
O3429      C3438   1.266       .  A
O3429     Al3436   1.925       .  S
O3430     Al3436   1.925       .  S
O3431      C3438   1.263       .  A
O3432     Al3436   1.789       .  S
O3433      C3434   1.258       .  A
C3434      C3616   1.480       .  S
C3435      C4060   1.479       .  S
C3438      C3601   1.487       .  S
C3439      O3440   1.267       .  A
C3439      C3988   1.480       .  S
O3441      C3456   1.259       .  A
O3441     Al3449   1.917       .  S
C3442      O3452   1.263       .  A
C3442      O3443   1.270       .  A
C3442      C3565   1.468       .  S
O3443     Al3445   1.930       .  S
O3444      C3446   1.258       .  A
O3444     Al3445   1.857       .  S
Al3445     O3453   1.890       .  S
Al3445     O3455   1.886       .  S
Al3445     O3454   1.769       .  S
C3446      O3459   1.265       .  A
C3446      C3577   1.491       .  S
O3447      C3457   1.256       .  A
O3447     Al3449   1.918       .  S
O3448      C3461   1.265       .  A
O3448     Al3458   1.866       .  S
Al3449     O3462   1.942       .  S
Al3449     O3459   1.929       .  S
Al3449     O3454   1.789       .  S
O3450      C3457   1.251       .  A
O3450     Al3458   1.884       .  S
O3451      C3460   1.257       .  A
O3451     Al3458   1.927       .  S
O3452     Al3458   1.899       .  S
O3453      C3460   1.253       .  A
O3454     Al3458   1.798       .  S
O3455      C3456   1.254       .  A
C3456      C3613   1.483       .  S
C3457      C3688   1.495       .  S
C3460      C3649   1.477       .  S
C3461      O3462   1.276       .  A
C3461      C3781   1.466       .  S
O3463      C3478   1.263       .  A
O3463     Al3471   1.932       .  S
C3464      O3474   1.262       .  A
C3464      O3465   1.260       .  A
C3464      C3628   1.474       .  S
O3465     Al3467   1.887       .  S
O3466      C3468   1.260       .  A
O3466     Al3467   1.881       .  S
Al3467     O3475   1.897       .  S
Al3467     O3477   1.890       .  S
Al3467     O3476   1.769       .  S
C3468      O3481   1.267       .  A
C3468      C3556   1.475       .  S
O3469      C3479   1.263       .  A
O3469     Al3471   1.913       .  S
O3470      C3483   1.261       .  A
O3470     Al3480   1.877       .  S
Al3471     O3484   1.924       .  S
Al3471     O3481   1.942       .  S
Al3471     O3476   1.788       .  S
O3472      C3479   1.261       .  A
O3472     Al3480   1.903       .  S
O3473      C3482   1.265       .  A
O3473     Al3480   1.925       .  S
O3474     Al3480   1.924       .  S
O3475      C3482   1.262       .  A
O3476     Al3480   1.786       .  S
O3477      C3478   1.255       .  A
C3478      C3541   1.479       .  S
C3479      C3793   1.492       .  S
C3482      C3568   1.485       .  S
C3483      O3484   1.266       .  A
C3483      C3724   1.472       .  S
O3485     Al3493   1.923       .  S
C3486      O3496   1.255       .  A
C3486      O3487   1.259       .  A
C3486      C3529   1.465       .  S
O3487     Al3489   1.902       .  S
O3488      C3490   1.258       .  A
O3488     Al3489   1.885       .  S
Al3489     O3497   1.867       .  S
Al3489     O3499   1.927       .  S
Al3489     O3498   1.765       .  S
C3490      C3553   1.476       .  S
O3491      C3501   1.266       .  A
O3491     Al3493   1.905   1_565  S
O3492     Al3502   1.869       .  S
Al3493     O3506   1.925   1_545  S
Al3493     O3503   1.946       .  S
O3494     Al3502   1.922       .  S
O3495      C3504   1.267       .  A
O3495     Al3502   1.945       .  S
O3496     Al3502   1.896       .  S
O3497      C3504   1.260       .  A
O3498     Al3502   1.784       .  S
O3499      C3500   1.264       .  A
C3500      C3637   1.482       .  S
C3501      C4000   1.491       .  S
C3504      C3589   1.490       .  S
C3505      O3506   1.262       .  A
C3505      C3904   1.477       .  S
O3507      C3522   1.261       .  A
O3507     Al3515   1.929       .  S
C3508      O3518   1.263       .  A
C3508      O3509   1.264       .  A
C3508      C3604   1.462       .  S
O3509     Al3511   1.915       .  S
O3510      C3512   1.256       .  A
O3510     Al3511   1.858       .  S
Al3511     O3519   1.875       .  S
Al3511     O3521   1.894       .  S
Al3511     O3520   1.762       .  S
C3512      O3525   1.272       .  A
C3512      C3580   1.473       .  S
O3513      C3523   1.262       .  A
O3513     Al3515   1.915       .  S
O3514      C3527   1.261       .  A
O3514     Al3524   1.856       .  S
Al3515     O3528   1.951       .  S
Al3515     O3525   1.956       .  S
Al3515     O3520   1.783       .  S
O3516      C3523   1.259       .  A
O3516     Al3524   1.909       .  S
O3517      C3526   1.266       .  A
O3517     Al3524   1.948       .  S
O3518     Al3524   1.903       .  S
O3519      C3526   1.255       .  A
O3520     Al3524   1.788       .  S
O3521      C3522   1.255       .  A
C3522      C3544   1.481       .  S
C3523      C3889   1.494       .  S
C3526      C3532   1.478       .  S
C3527      O3528   1.274       .  A
C3527      C4045   1.466       .  S
C3529      C3530   1.394       .  A
C3529      C3534   1.408       .  A
C3530      C3531   1.392       .  A
C3530      H3535   1.083       .  S
C3531      C3532   1.413       .  A
C3531      C3538   1.442       .  S
C3532      C3533   1.406       .  A
C3533      C3534   1.403       .  A
C3533      H3536   1.085       .  S
C3534      C3537   1.440       .  S
C3537      N3539   1.156       .  T
C3538      N3540   1.156       .  T
C3541      C3542   1.404       .  A
C3541      C3546   1.410       .  A
C3542      C3543   1.403       .  A
C3542      H3547   1.085       .  S
C3543      C3544   1.411       .  A
C3543      C3550   1.444       .  S
C3544      C3545   1.404       .  A
C3545      C3546   1.408       .  A
C3545      H3548   1.082       .  S
C3546      C3549   1.443       .  S
C3549      N3551   1.157       .  T
C3550      N3552   1.157       .  T
C3553      C3554   1.401       .  A
C3553      C3558   1.412       .  A
C3554      C3555   1.400       .  A
C3554      H3559   1.085       .  S
C3555      C3556   1.411       .  A
C3555      C3562   1.443       .  S
C3556      C3557   1.401       .  A
C3557      C3558   1.402       .  A
C3557      H3560   1.084       .  S
C3558      C3561   1.443       .  S
C3561      N3563   1.157       .  T
C3562      N3564   1.157       .  T
C3565      C3566   1.395       .  A
C3565      C3570   1.407       .  A
C3566      C3567   1.398       .  A
C3566      H3571   1.080   1_556  S
C3567      C3568   1.418       .  A
C3567      C3574   1.443   1_556  S
C3568      C3569   1.407       .  A
C3569      C3570   1.401       .  A
C3569      H3572   1.085       .  S
C3570      C3573   1.442       .  S
C3573      N3575   1.157       .  T
C3574      N3576   1.157       .  T
C3577      C3578   1.405       .  A
C3577      C3582   1.418       .  A
C3578      C3579   1.386       .  A
C3578      H3583   1.085       .  S
C3579      C3580   1.411       .  A
C3579      C3586   1.447       .  S
C3580      C3581   1.403       .  A
C3581      C3582   1.411       .  A
C3581      H3584   1.083       .  S
C3582      C3585   1.442       .  S
C3585      N3587   1.157       .  T
C3586      N3588   1.157       .  T
C3589      C3590   1.402       .  A
C3589      C3594   1.417       .  A
C3590      C3591   1.386       .  A
C3590      H3595   1.084       .  S
C3591      C3592   1.409       .  A
C3591      C3598   1.443       .  S
C3592      C3593   1.406       .  A
C3593      C3594   1.412       .  A
C3593      H3596   1.084       .  S
C3594      C3597   1.441       .  S
C3597      N3599   1.157       .  T
C3598      N3600   1.156       .  T
C3601      C3602   1.412       .  A
C3601      C3606   1.416       .  A
C3602      C3603   1.403       .  A
C3602      H3607   1.084       .  S
C3603      C3604   1.404       .  A
C3603      C3610   1.444       .  S
C3604      C3605   1.397       .  A
C3605      C3606   1.394       .  A
C3605      H3608   1.086       .  S
C3606      C3609   1.441       .  S
C3609      N3611   1.156       .  T
C3610      N3612   1.157       .  T
C3613      C3614   1.404       .  A
C3613      C3618   1.413       .  A
C3614      C3615   1.404       .  A
C3614      H3619   1.085       .  S
C3615      C3616   1.410       .  A
C3615      C3622   1.442   1_655  S
C3616      C3617   1.401       .  A
C3617      C3618   1.407       .  A
C3617      H3620   1.085       .  S
C3618      C3621   1.442       .  S
C3621      N3623   1.157       .  T
C3625      C3626   1.412       .  A
C3625      C3630   1.424       .  A
C3626      C3627   1.411       .  A
C3626      H3631   1.084   1_556  S
C3627      C3628   1.408       .  A
C3627      C3634   1.441   1_556  S
C3628      C3629   1.395       .  A
C3629      C3630   1.385       .  A
C3629      H3632   1.086       .  S
C3630      C3633   1.446       .  S
C3633      N3635   1.157       .  T
C3634      N3636   1.157       .  T
C3637      C3638   1.403       .  A
C3637      C3642   1.411       .  A
C3638      C3639   1.407       .  A
C3638      H3643   1.085       .  S
C3639      C3640   1.412       .  A
C3639      C3646   1.444       .  S
C3640      C3641   1.403       .  A
C3641      C3642   1.406       .  A
C3641      H3644   1.085       .  S
C3642      C3645   1.443       .  S
C3645      N3647   1.157       .  T
C3646      N3648   1.157       .  T
C3649      C3650   1.406       .  A
C3649      C3654   1.413   1_556  A
C3650      C3651   1.399       .  A
C3650      H3655   1.085       .  S
C3651      C3652   1.404       .  A
C3651      C3658   1.445       .  S
C3652      C3653   1.399       .  A
C3653      C3654   1.400   1_556  A
C3653      H3656   1.085   1_556  S
C3654      C3657   1.442       .  S
C3657      N3659   1.157       .  T
C3658      N3660   1.157       .  T
C3661      C3662   1.411       .  A
C3661      C3666   1.426       .  A
C3662      C3663   1.412       .  A
C3662      H3667   1.084       .  S
C3663      C3664   1.410       .  A
C3663      C3670   1.442       .  S
C3664      C3665   1.390       .  A
C3665      C3666   1.388       .  A
C3665      H3668   1.084       .  S
C3666      C3669   1.445       .  S
C3669      N3671   1.157       .  T
C3670      N3672   1.157       .  T
C3673      C3674   1.396       .  A
C3673      C3678   1.412   1_554  A
C3674      H3679   1.085       .  S
C3675      C3676   1.414   1_554  A
C3675      C3682   1.445       .  S
C3676      C3677   1.399       .  A
C3677      H3680   1.085       .  S
C3678      C3681   1.444       .  S
C3681      N3683   1.157       .  T
C3682      N3684   1.157       .  T
C3685      C3686   1.409   1_554  A
C3685      C3690   1.411       .  A
C3686      C3687   1.406       .  A
C3686      H3691   1.085       .  S
C3687      C3688   1.415       .  A
C3687      C3694   1.443       .  S
C3688      C3689   1.410   1_556  A
C3689      C3690   1.398       .  A
C3689      H3692   1.084       .  S
C3690      C3693   1.445       .  S
C3693      N3695   1.157       .  T
C3694      N3696   1.157       .  T
C3697      C3698   1.404       .  A
C3697      C3702   1.416       .  A
C3698      C3699   1.387       .  A
C3698      H3703   1.083       .  S
C3699      C3700   1.416       .  A
C3699      C3706   1.447       .  S
C3700      C3701   1.410       .  A
C3701      C3702   1.416       .  A
C3701      H3704   1.084       .  S
C3702      C3705   1.442       .  S
C3705      N3707   1.157       .  T
C3706      N3708   1.157       .  T
C3709      C3710   1.403       .  A
C3709      C3714   1.412   1_554  A
C3710      H3715   1.085       .  S
C3711      C3712   1.420   1_554  A
C3711      C3718   1.444       .  S
C3713      C3714   1.402       .  A
C3713      H3716   1.084       .  S
C3714      C3717   1.445       .  S
C3717      N3719   1.157       .  T
C3718      N3720   1.157       .  T
C3721      C3722   1.405       .  A
C3721      C3726   1.412       .  A
C3722      C3723   1.402   1_554  A
C3722      H3727   1.085       .  S
C3723      C3724   1.411       .  A
C3723      C3730   1.444       .  S
C3724      C3725   1.401       .  A
C3725      C3726   1.394   1_556  A
C3725      H3728   1.086       .  S
C3726      C3729   1.444       .  S
C3729      N3731   1.157       .  T
C3730      N3732   1.157       .  T
C3733      C3734   1.408       .  A
C3733      C3738   1.412       .  A
C3734      C3735   1.399       .  A
C3734      H3739   1.085       .  S
C3735      C3736   1.405       .  A
C3735      C3742   1.442   1_554  S
C3736      C3737   1.402       .  A
C3737      C3738   1.403       .  A
C3737      H3740   1.083       .  S
C3738      C3741   1.441       .  S
C3741      N3743   1.156       .  T
C3742      N3744   1.157       .  T
C3745      C3746   1.404       .  A
C3745      C3750   1.407       .  A
C3746      C3747   1.410       .  A
C3746      H3751   1.083       .  S
C3747      C3748   1.416       .  A
C3747      C3754   1.443       .  S
C3748      C3749   1.404       .  A
C3749      C3750   1.401       .  A
C3749      H3752   1.082       .  S
C3750      C3753   1.441       .  S
C3753      N3755   1.157       .  T
C3754      N3756   1.157       .  T
C3757      C3758   1.400       .  A
C3757      C3762   1.410       .  A
C3758      C3759   1.399       .  A
C3758      H3763   1.082       .  S
C3759      C3760   1.407       .  A
C3759      C3766   1.442       .  S
C3760      C3761   1.401       .  A
C3761      C3762   1.401       .  A
C3761      H3764   1.085       .  S
C3762      C3765   1.444       .  S
C3765      N3767   1.157       .  T
C3766      N3768   1.157       .  T
C3769      C3770   1.398       .  A
C3769      C3774   1.411       .  A
C3770      C3771   1.399       .  A
C3770      H3775   1.083       .  S
C3771      C3772   1.411       .  A
C3771      C3778   1.444       .  S
C3772      C3773   1.401       .  A
C3773      C3774   1.400       .  A
C3774      C3777   1.445       .  S
C3778      N3780   1.157       .  T
C3781      C3782   1.403   1_556  A
C3782      H3787   1.085       .  S
C3783      C3784   1.407       .  A
C3784      C3785   1.404   1_554  A
C3785      C3786   1.400       .  A
C3785      H3788   1.085       .  S
C3786      C3789   1.444       .  S
C3789      N3791   1.157       .  T
C3790      N3792   1.157       .  T
C3793      C3794   1.408   1_556  A
C3793      C3798   1.413       .  A
C3794      H3799   1.085       .  S
C3795      C3796   1.417       .  A
C3795      C3802   1.444       .  S
C3796      C3797   1.411   1_554  A
C3797      H3800   1.084       .  S
C3798      C3801   1.444       .  S
C3801      N3803   1.157       .  T
C3802      N3804   1.157   1_565  T
C3805      C3806   1.405       .  A
C3805      C3810   1.417       .  A
C3806      C3807   1.391       .  A
C3806      H3811   1.086       .  S
C3807      C3808   1.414       .  A
C3807      C3814   1.445       .  S
C3808      C3809   1.404       .  A
C3809      C3810   1.407       .  A
C3809      H3812   1.084       .  S
C3810      C3813   1.442   1_554  S
C3813      N3815   1.157       .  T
C3814      N3816   1.157       .  T
C3817      C3818   1.410       .  A
C3817      C3822   1.416       .  A
C3818      C3819   1.416       .  A
C3818      H3823   1.084       .  S
C3819      C3820   1.412       .  A
C3819      C3826   1.442       .  S
C3820      C3821   1.399       .  A
C3821      C3822   1.400       .  A
C3821      H3824   1.086       .  S
C3822      C3825   1.442       .  S
C3825      N3827   1.156       .  T
C3826      N3828   1.157       .  T
C3829      C3830   1.396       .  A
C3829      C3834   1.408       .  A
C3830      C3831   1.391       .  A
C3830      H3835   1.084       .  S
C3831      C3832   1.413       .  A
C3831      C3838   1.440       .  S
C3832      C3833   1.408       .  A
C3833      C3834   1.405       .  A
C3833      H3836   1.083   1_554  S
C3834      C3837   1.442   1_554  S
C3837      N3839   1.157       .  T
C3838      N3840   1.155       .  T
C3841      C3842   1.403       .  A
C3841      C3846   1.418       .  A
C3842      C3843   1.391       .  A
C3842      H3847   1.084       .  S
C3843      C3844   1.415       .  A
C3843      C3850   1.443       .  S
C3844      C3845   1.407       .  A
C3845      C3846   1.408       .  A
C3845      H3848   1.084       .  S
C3846      C3849   1.443       .  S
C3849      N3851   1.157       .  T
C3850      N3852   1.156       .  T
C3853      C3854   1.403       .  A
C3853      C3858   1.410       .  A
C3854      C3855   1.403       .  A
C3854      H3859   1.084       .  S
C3855      C3856   1.411       .  A
C3855      C3862   1.443       .  S
C3856      C3857   1.406       .  A
C3857      C3858   1.412       .  A
C3857      H3860   1.084       .  S
C3861      N3863   1.157       .  T
C3862      N3864   1.157       .  T
C3865      C3866   1.403       .  A
C3865      C3870   1.411       .  A
C3866      C3867   1.388       .  A
C3866      H3871   1.086       .  S
C3867      C3868   1.408       .  A
C3867      C3874   1.446       .  S
C3868      C3869   1.408       .  A
C3869      C3870   1.413       .  A
C3869      H3872   1.084       .  S
C3870      C3873   1.441       .  S
C3873      N3875   1.157       .  T
C3874      N3876   1.157       .  T
C3877      C3878   1.402       .  A
C3877      C3882   1.410       .  A
C3878      C3879   1.402       .  A
C3878      H3883   1.085       .  S
C3879      C3880   1.411       .  A
C3879      C3886   1.443       .  S
C3880      C3881   1.400       .  A
C3881      C3882   1.400       .  A
C3881      H3884   1.084       .  S
C3885      N3887   1.157       .  T
C3886      N3888   1.157       .  T
C3889      C3890   1.411       .  A
C3889      C3894   1.414       .  A
C3890      C3891   1.404       .  A
C3890      H3895   1.084       .  S
C3891      C3892   1.410       .  A
C3891      C3898   1.444       .  S
C3892      C3893   1.407       .  A
C3893      C3894   1.403       .  A
C3893      H3896   1.085       .  S
C3894      C3897   1.443       .  S
C3897      N3899   1.157       .  T
C3898      N3900   1.157       .  T
C3901      C3902   1.401       .  A
C3901      C3906   1.411       .  A
C3902      C3903   1.391       .  A
C3902      H3907   1.086       .  S
C3903      C3904   1.415       .  A
C3903      C3910   1.446   1_565  S
C3904      C3905   1.407       .  A
C3905      C3906   1.404       .  A
C3905      H3908   1.084       .  S
C3906      C3909   1.444       .  S
C3909      N3911   1.157       .  T
C3910      N3912   1.157       .  T
C3913      C3914   1.410       .  A
C3913      C3918   1.411       .  A
C3914      C3915   1.406       .  A
C3914      H3919   1.085       .  S
C3915      C3916   1.413       .  A
C3915      C3922   1.444       .  S
C3916      C3917   1.411       .  A
C3917      C3918   1.404       .  A
C3917      H3920   1.085       .  S
C3918      C3921   1.444       .  S
C3921      N3923   1.157       .  T
C3922      N3924   1.157       .  T
C3925      C3926   1.407       .  A
C3925      C3930   1.414       .  A
C3926      C3927   1.398       .  A
C3926      H3931   1.085   1_655  S
C3927      C3928   1.406       .  A
C3927      C3934   1.444       .  S
C3928      C3929   1.401       .  A
C3929      C3930   1.398       .  A
C3929      H3932   1.085       .  S
C3933      N3935   1.157       .  T
C3934      N3936   1.157       .  T
C3937      C3938   1.405       .  A
C3937      C3942   1.417       .  A
C3938      C3939   1.389       .  A
C3938      H3943   1.085       .  S
C3939      C3940   1.417       .  A
C3939      C3946   1.447       .  S
C3940      C3941   1.407       .  A
C3941      C3942   1.411       .  A
C3941      H3944   1.085       .  S
C3942      C3945   1.442       .  S
C3945      N3947   1.157       .  T
C3946      N3948   1.157       .  T
C3949      C3950   1.407       .  A
C3949      C3954   1.418       .  A
C3950      C3951   1.404       .  A
C3950      H3955   1.084       .  S
C3951      C3952   1.411       .  A
C3951      C3958   1.444       .  S
C3952      C3953   1.402       .  A
C3953      C3954   1.398       .  A
C3953      H3956   1.086       .  S
C3954      C3957   1.445       .  S
C3957      N3959   1.157       .  T
C3958      N3960   1.157       .  T
C3961      C3962   1.401       .  A
C3961      C3966   1.416       .  A
C3962      C3963   1.401       .  A
C3963      C3964   1.421       .  A
C3963      C3970   1.444       .  S
C3964      C3965   1.407       .  A
C3965      C3966   1.402       .  A
C3965      H3968   1.085       .  S
C3966      C3969   1.445       .  S
C3969      N3971   1.157       .  T
C3973      C3974   1.403       .  A
C3973      C3978   1.411       .  A
C3974      C3975   1.400       .  A
C3974      H3979   1.085       .  S
C3975      C3976   1.410       .  A
C3975      C3982   1.443       .  S
C3976      C3977   1.402       .  A
C3977      C3978   1.403       .  A
C3977      H3980   1.083       .  S
C3978      C3981   1.444   1_565  S
C3982      N3984   1.157       .  T
C3985      C3986   1.404       .  A
C3985      C3990   1.413       .  A
C3986      C3987   1.402       .  A
C3986      H3991   1.085       .  S
C3987      C3988   1.412       .  A
C3987      C3994   1.444       .  S
C3988      C3989   1.405       .  A
C3989      C3990   1.399       .  A
C3990      C3993   1.446       .  S
C3994      N3996   1.157       .  T
C3997      C3998   1.407       .  A
C3997      C4002   1.422       .  A
C3998      C3999   1.401       .  A
C3998      H4003   1.084       .  S
C3999      C4000   1.414       .  A
C3999      C4006   1.444       .  S
C4000      C4001   1.405       .  A
C4001      C4002   1.405       .  A
C4002      C4005   1.445       .  S
C4005      N4007   1.158       .  T
C4006      N4008   1.157       .  T
C4009      C4010   1.403       .  A
C4009      C4014   1.416       .  A
C4010      C4011   1.393       .  A
C4010      H4015   1.085       .  S
C4011      C4012   1.415       .  A
C4011      C4018   1.443       .  S
C4012      C4013   1.404       .  A
C4013      C4014   1.403       .  A
C4013      H4016   1.085       .  S
C4014      C4017   1.441       .  S
C4017      N4019   1.157   1_655  T
C4018      N4020   1.156       .  T
C4021      C4022   1.403       .  A
C4022      C4023   1.404       .  A
C4022      H4027   1.084       .  S
C4023      C4030   1.444       .  S
C4024      C4025   1.404       .  A
C4025      C4026   1.403       .  A
C4025      H4028   1.085       .  S
C4026      C4029   1.444       .  S
C4029      N4031   1.157       .  T
C4030      N4032   1.157       .  T
C4033      C4038   1.412       .  A
C4034      C4035   1.390       .  A
C4034      H4039   1.084       .  S
C4035      C4036   1.413       .  A
C4035      C4042   1.442       .  S
C4037      C4038   1.417   1_455  A
C4037      H4040   1.084       .  S
C4038      C4041   1.441       .  S
C4041      N4043   1.157       .  T
C4042      N4044   1.155       .  T
C4045      C4046   1.398       .  A
C4045      C4050   1.407       .  A
C4046      C4047   1.391       .  A
C4046      H4051   1.087       .  S
C4047      C4048   1.417       .  A
C4047      C4054   1.445       .  S
C4048      C4049   1.410       .  A
C4049      C4050   1.406       .  A
C4049      H4052   1.084       .  S
C4050      C4053   1.443       .  S
C4053      N4055   1.157       .  T
C4054      N4056   1.157       .  T
C4057      C4058   1.406       .  A
C4057      C4062   1.422       .  A
C4058      C4059   1.401       .  A
C4058      H4063   1.084       .  S
C4059      C4060   1.413       .  A
C4060      C4061   1.400       .  A
C4061      C4062   1.396       .  A
C4061      H4064   1.085       .  S
C4062      C4065   1.445       .  S
C4065      N4067   1.158       .  T
C4066      N4068   1.157       .  T
C4069      C4070   1.397       .  A
C4069      C4074   1.408       .  A
C4070      C4071   1.398       .  A
C4070      H4075   1.078       .  S
C4071      C4072   1.408       .  A
C4071      C4078   1.442       .  S
C4072      C4073   1.403       .  A
C4073      C4074   1.403       .  A
C4073      H4076   1.085       .  S
C4077      N4079   1.157       .  T
C4078      N4080   1.157       .  T
C4081      C4082   1.402       .  A
C4081      C4086   1.408       .  A
C4082      C4083   1.402       .  A
C4082      H4087   1.081       .  S
C4083      C4084   1.408       .  A
C4084      C4085   1.400       .  A
C4085      C4086   1.395       .  A
C4085      H4088   1.083       .  S
C4086      C4089   1.442       .  S
C4089      N4091   1.157       .  T
C4090      N4092   1.157       .  T
C4093      C4094   1.396       .  A
C4093      C4098   1.412       .  A
C4094      C4095   1.388       .  A
C4094      H4099   1.085       .  S
C4095      C4096   1.418       .  A
C4095      C4102   1.447       .  S
C4096      C4097   1.411       .  A
C4097      C4098   1.416       .  A
C4097      H4100   1.084       .  S
C4098      C4101   1.442       .  S
C4101      N4103   1.157       .  T
C4102      N4104   1.157       .  T
C4105      C4106   1.405       .  A
C4105      C4110   1.423       .  A
C4106      C4107   1.403       .  A
C4106      H4111   1.085       .  S
C4107      C4108   1.418       .  A
C4108      C4109   1.402       .  A
C4109      C4110   1.401       .  A
C4109      H4112   1.085       .  S
C4110      C4113   1.445       .  S
C4113      N4115   1.158       .  T
C4114      N4116   1.157       .  T
C4117      C4118   1.401       .  A
C4117      C4122   1.409       .  A
C4118      C4119   1.397       .  A
C4118      H4123   1.085       .  S
C4119      C4120   1.411       .  A
C4119      C4126   1.444       .  S
C4120      C4121   1.401       .  A
C4121      C4122   1.395       .  A
C4121      H4124   1.085       .  S
C4122      C4125   1.443       .  S
C4125      N4127   1.157       .  T
C4129      C4130   1.410       .  A
C4129      C4134   1.412       .  A
C4130      C4131   1.399       .  A
C4131      C4132   1.403       .  A
C4131      C4138   1.444       .  S
C4132      C4133   1.402       .  A
C4133      C4134   1.401       .  A
C4133      H4136   1.085       .  S
C4134      C4137   1.442       .  S
C4137      N4139   1.157       .  T
C4138      N4140   1.157       .  T
C4141      C4142   1.399       .  A
C4141      C4146   1.408   1_655  A
C4142      H4147   1.078       .  S
C4143      C4144   1.410       .  A
C4143      C4150   1.440       .  S
C4144      C4145   1.406       .  A
C4145      H4148   1.084       .  S
C4146      C4149   1.443       .  S
C4149      N4151   1.157       .  T
C4150      N4152   1.156       .  T
C4153      C4154   1.406   1_565  A
C4153      C4158   1.416       .  A
C4154      H4159   1.082       .  S
C4155      C4156   1.406       .  A
C4155      C4162   1.443       .  S
C4157      C4158   1.402       .  A
C4157      H4160   1.084       .  S
C4158      C4161   1.444       .  S
C4161      N4163   1.157       .  T
C4162      N4164   1.157       .  T
C4165      C4166   1.400       .  A
C4165      C4170   1.408       .  A
C4166      C4167   1.393       .  A
C4166      H4171   1.086       .  S
C4167      C4168   1.416       .  A
C4167      C4174   1.445       .  S
C4168      C4169   1.410       .  A
C4169      C4170   1.405       .  A
C4169      H4172   1.084       .  S
C4173      N4175   1.157       .  T
C4174      N4176   1.157       .  T
