geometry optimzed in LAMMPS
_audit_creation_date              2020-12-01 
_audit_creation_method            'lammps2cif' 
_symmetry_space_group_name_H-M    'P1' 
_symmetry_Int_Tables_number       1 
_symmetry_cell_setting            triclinic 
loop_ 
_symmetry_equiv_pos_as_xyz 
  x,y,z 
_cell_length_a                    35.22066765 
_cell_length_b                    35.14182461800719 
_cell_length_c                    35.27842395046735 
_cell_angle_alpha                 89.89741506852175 
_cell_angle_beta                  89.29172474273547 
_cell_angle_gamma                 89.95678025406744 
loop_ 
_atom_site_label 
_atom_site_type_symbol 
_atom_site_fract_x 
_atom_site_fract_y 
_atom_site_fract_z 
_atom_site_charge 
O1          O  0.16522385  0.58943323  0.46405270    -0.86000
O2          O  0.21141117  0.63833549  0.49953347    -0.83000
C3          C  0.22726826  0.65820532  0.52405115     0.97500
O4          O  0.21664990  0.65543599  0.55874189    -0.83100
O5          O  0.13607793  0.67160454  0.56261907    -0.85700
C6          C  0.10060849  0.66658000  0.55882839     1.02000
O7          O  0.08814116  0.63289313  0.55560611    -0.78500
O8          O  0.11309065  0.61774465  0.48462539    -0.78700
C9          C  0.13424147  0.60671966  0.45815082     1.01900
O10         O  0.18552204  0.53118263  0.51720113    -0.86000
O11         O  0.23512749  0.57945328  0.55187208    -0.83100
C12         C  0.22904379  0.57354324  0.58692629     0.97500
O13         O  0.20040407  0.58792907  0.60322673    -0.83100
O14         O  0.12452232  0.60563457  0.61235129    -0.85700
C15         C  0.10888231  0.57318493  0.60752987     1.02000
O16         O  0.11196255  0.55671155  0.57621353    -0.78500
O17         O  0.12616199  0.53942375  0.50209915    -0.78700
C18         C  0.15533688  0.51846723  0.50352631     1.01900
Cr19       Cr  0.19691138  0.58591407  0.51046839     1.93700
Cr20       Cr  0.16891588  0.62874406  0.58143897     1.93200
Cr21       Cr  0.11313837  0.58759902  0.53068815     1.39100
O22         O  0.15990408  0.60096848  0.54079059    -1.23700
O23         O  0.13124225  0.55748775  0.28985740    -0.86000
O24         O  0.13159692  0.50406393  0.23163990    -0.83000
C25         C  0.09669719  0.50808827  0.22765134     0.97500
O26         O  0.08491915  0.53795769  0.21094915    -0.83100
O27         O  0.08615608  0.61503108  0.18514231    -0.85700
C28         C  0.08051586  0.64024181  0.21042427     1.02000
O29         O  0.10355662  0.64380216  0.23726754    -0.78500
O30         O  0.15248307  0.61622742  0.28936100    -0.78700
C31         C  0.13329214  0.59007239  0.30489864     1.01900
O32         O  0.20874686  0.57150361  0.27317753    -0.86000
O33         O  0.20205807  0.52917310  0.20705391    -0.83100
C34         C  0.18928183  0.51749175  0.17575607     0.97500
O35         O  0.15555909  0.52575633  0.16592671    -0.83100
O36         O  0.15860589  0.60173057  0.14639995    -0.85700
C37         C  0.17028724  0.63524019  0.15322249     1.02000
O38         O  0.16401142  0.65070023  0.18466970    -0.78500
O39         O  0.21391441  0.61959136  0.23495226    -0.78700
C40         C  0.22856495  0.59766938  0.25902002     1.01900
Cr41       Cr  0.16693813  0.54361996  0.24840870     1.93700
Cr42       Cr  0.12269600  0.57082680  0.17996781     1.93200
Cr43       Cr  0.15789432  0.62870831  0.23538277     1.39100
O44         O  0.14892930  0.58148840  0.22082191    -1.23700
O45         O  0.29172396  0.16246436  0.58880284    -0.86000
O46         O  0.26083524  0.10772325  0.54447423    -0.83000
C47         C  0.23778882  0.08568595  0.52905780     0.97500
O48         O  0.20278718  0.08651233  0.53912154    -0.83100
O49         O  0.20004978  0.07150991  0.61952928    -0.85700
C50         C  0.20364300  0.07750225  0.65483252     1.02000
O51         O  0.20485462  0.11168109  0.66654026    -0.78500
O52         O  0.27407147  0.13509837  0.64238839    -0.78700
C53         C  0.29938642  0.14848496  0.62102815     1.01900
O54         O  0.23386709  0.21417368  0.56574593    -0.86000
O55         O  0.20354148  0.16081006  0.51827652    -0.83100
C56         C  0.16810518  0.16464801  0.52433889     0.97500
O57         O  0.15309056  0.15066907  0.55391124    -0.83100
O58         O  0.14549415  0.13263125  0.63093445    -0.85700
C59         C  0.14794071  0.16567937  0.64564653     1.02000
O60         O  0.17626082  0.18560869  0.63844002    -0.78500
O61         O  0.24746694  0.20978895  0.62586426    -0.78700
C62         C  0.24493125  0.22932262  0.59588207     1.01900
Cr63       Cr  0.24540110  0.15974833  0.55676704     1.93700
Cr64       Cr  0.17791073  0.11211297  0.58614840     1.93200
Cr65       Cr  0.22461070  0.15936321  0.64029160     1.39100
O66         O  0.21648454  0.14319943  0.59424505    -1.23700
O67         O  0.47384560  0.18901899  0.62768454    -0.86000
O68         O  0.53781653  0.23436096  0.62207519    -0.83000
C69         C  0.53751001  0.23008254  0.65710927     0.97500
O70         O  0.55150680  0.19922411  0.66977677    -0.83100
O71         O  0.57420897  0.12082870  0.67084322    -0.85700
C72         C  0.54919117  0.09533279  0.67653756     1.02000
O73         O  0.52121582  0.09283659  0.65473985    -0.78500
O74         O  0.46596221  0.12814768  0.61361527    -0.78700
C75         C  0.45426529  0.15901189  0.62847941     1.01900
O76         O  0.48158186  0.17055644  0.55133787    -0.86000
O77         O  0.55411707  0.20300819  0.55157546    -0.83100
C78         C  0.58626531  0.21393116  0.56274514     0.97500
O79         O  0.59707185  0.20621189  0.59643591    -0.83100
O80         O  0.61028303  0.12966827  0.59726136    -0.85700
C81         C  0.59964299  0.09844290  0.58274193     1.02000
O82         O  0.56671539  0.08530208  0.58811490    -0.78500
O83         O  0.51254392  0.11772146  0.54513241    -0.78700
C84         C  0.49007157  0.14201144  0.53196197     1.01900
Cr85       Cr  0.51377225  0.19588327  0.58952976     1.93700
Cr86       Cr  0.58025802  0.16368118  0.63249700     1.93200
Cr87       Cr  0.51807962  0.10977805  0.60101320     1.39100
O88         O  0.53774650  0.15554120  0.60774241    -1.23700
O89         O  0.63292993  0.45885316  0.19857445    -0.86000
O90         O  0.62553710  0.52503633  0.23998009    -0.83000
C91         C  0.66039952  0.52957937  0.23492357     0.97500
O92         O  0.67162934  0.54460090  0.20364003    -0.83100
O93         O  0.67044132  0.56161347  0.12364609    -0.85700
C94         C  0.68236223  0.53347737  0.10426783     1.02000
O95         O  0.66550144  0.50184878  0.10688442    -0.78500
O96         O  0.61900153  0.44765347  0.13901041    -0.78700
C97         C  0.63507405  0.43821435  0.16945573     1.01900
O98         O  0.55580995  0.46552512  0.17723470    -0.86000
O99         O  0.55370682  0.53766408  0.21017265    -0.83100
C100        C  0.56420996  0.57069229  0.21963021     0.97500
O101        O  0.59684110  0.58275154  0.20940383    -0.83100
O102        O  0.59179018  0.58866353  0.13117409    -0.85700
C103        C  0.58397803  0.57420766  0.09902233     1.02000
O104        O  0.60149054  0.54508549  0.08799404    -0.78500
O105        O  0.55371267  0.49397086  0.12241757    -0.78700
C106        C  0.53788073  0.47435133  0.14798421     1.01900
Cr107      Cr  0.59337574  0.49830289  0.20321000     1.93700
Cr108      Cr  0.63192912  0.56675923  0.16670760     1.93200
Cr109      Cr  0.60990447  0.49858481  0.11759238     1.39100
O110        O  0.61195782  0.52129752  0.16216212    -1.23700
O111        O  0.59683587  0.28138124  0.16480286    -0.86000
O112        O  0.55100367  0.24951499  0.11207617    -0.83000
C113        C  0.53299377  0.22619360  0.09253744     0.97500
O114        O  0.54157519  0.19078117  0.09460932    -0.83100
O115        O  0.62300944  0.18292076  0.07910030    -0.85700
C116        C  0.65842675  0.18569141  0.08527860     1.02000
O117        O  0.66979673  0.18835461  0.11924727    -0.78500
O118        O  0.64983278  0.25995836  0.13894167    -0.78700
C119        C  0.63020744  0.28672512  0.15188573     1.01900
O120        O  0.56952560  0.22846681  0.21965951    -0.86000
O121        O  0.52097253  0.19636663  0.16857768    -0.83100
C122        C  0.52484216  0.16077568  0.17384528     0.97500
O123        O  0.55371800  0.14371409  0.16065418    -0.83100
O124        O  0.63096288  0.13131485  0.14315963    -0.85700
C125        C  0.64616731  0.13502890  0.17573074     1.02000
O126        O  0.63990676  0.16477629  0.19386325    -0.78500
O127        O  0.63075720  0.23766758  0.21459780    -0.78700
C128        C  0.60037382  0.23853886  0.23407901     1.01900
Cr129      Cr  0.56193089  0.23656744  0.16468781     1.93700
Cr130      Cr  0.58777209  0.16494245  0.12097680     1.93200
Cr131      Cr  0.64438001  0.21172217  0.16549788     1.39100
O132        O  0.59790802  0.20484343  0.14990159    -1.23700
O133        O  0.65851024  0.90569833  0.54326529    -0.86000
O134        O  0.70853274  0.85563825  0.51060446    -0.83000
C135        C  0.72677347  0.83636764  0.48670513     0.97500
O136        O  0.71698984  0.83720004  0.45192957    -0.83100
O137        O  0.63810481  0.81577072  0.44725303    -0.85700
C138        C  0.60249308  0.81874335  0.45245117     1.02000
O139        O  0.58749638  0.85158651  0.45444319    -0.78500
O140        O  0.60807532  0.87432370  0.52459254    -0.78700
C141        C  0.62773018  0.88828074  0.55037083     1.01900
O142        O  0.67873937  0.96038648  0.48657897    -0.86000
O143        O  0.73161801  0.91267389  0.45579926    -0.83100
C144        C  0.72615291  0.91781941  0.42072737     0.97500
O145        O  0.69858766  0.90183045  0.40477433    -0.83100
O146        O  0.62491226  0.87910473  0.39412240    -0.85700
C147        C  0.60831897  0.91135204  0.39694856     1.02000
O148        O  0.60644088  0.92776816  0.42832454    -0.78500
O149        O  0.61859747  0.95144554  0.49990083    -0.78700
C150        C  0.64739014  0.97303507  0.49816362     1.01900
Cr151      Cr  0.69185240  0.90692685  0.49684788     1.93700
Cr152      Cr  0.66880407  0.85994199  0.42740721     1.93200
Cr153      Cr  0.60859708  0.90030623  0.47580834     1.39100
O154        O  0.65650401  0.88872172  0.46689558    -1.23700
O155        O  0.63174436  0.93194268  0.72015104    -0.86000
O156        O  0.63271658  0.98411426  0.78118216    -0.83000
C157        C  0.59787594  0.97913100  0.78152616     0.97500
O158        O  0.58595286  0.94785265  0.79513604    -0.83100
O159        O  0.58460186  0.87078543  0.81610397    -0.85700
C160        C  0.58513648  0.84171393  0.79482855     1.02000
O161        O  0.61346859  0.83559374  0.77305198    -0.78500
O162        O  0.65465624  0.87331516  0.71743376    -0.78700
C163        C  0.63416706  0.89973121  0.70405642     1.01900
O164        O  0.70944217  0.92190638  0.73067932    -0.86000
O165        O  0.70228959  0.95825613  0.80140838    -0.83100
C166        C  0.68868337  0.96734463  0.83363428     0.97500
O167        O  0.65560426  0.95620199  0.84453774    -0.83100
O168        O  0.65110271  0.87841199  0.86162401    -0.85700
C169        C  0.67108025  0.84918383  0.85368466     1.02000
O170        O  0.67756992  0.83914795  0.82015095    -0.78500
O171        O  0.72119019  0.87465039  0.76746156    -0.78700
C172        C  0.73289637  0.89874630  0.74355244     1.01900
Cr173      Cr  0.66759803  0.94537278  0.76047589     1.93700
Cr174      Cr  0.62140351  0.91313511  0.82640313     1.93200
Cr175      Cr  0.66563988  0.85952336  0.77059688     1.39100
O176        O  0.65150887  0.90509869  0.78667067    -1.23700
O177        O  0.21647579  0.83291858  0.09812431    -0.86000
O178        O  0.25017671  0.88179002  0.04763173    -0.83000
C179        C  0.27482137  0.90097886  0.03011638     0.97500
O180        O  0.30957765  0.89810894  0.03937688    -0.83100
O181        O  0.31631475  0.91630690  0.11916268    -0.85700
C182        C  0.31309947  0.91157285  0.15483261     1.02000
O183        O  0.31031425  0.87809926  0.16816494    -0.78500
O184        O  0.23892068  0.85987549  0.14953034    -0.78700
C185        C  0.21168207  0.84911525  0.12988949     1.01900
O186        O  0.26817539  0.77427378  0.07522291    -0.86000
O187        O  0.30100402  0.82191617  0.02261386    -0.83100
C188        C  0.33650520  0.81712165  0.02582653     0.97500
O189        O  0.35410355  0.83140230  0.05343473    -0.83100
O190        O  0.36667793  0.85208070  0.12885998    -0.85700
C191        C  0.36341561  0.82039696  0.14621555     1.02000
O192        O  0.33309254  0.80198372  0.14421958    -0.78500
O193        O  0.25825198  0.78208305  0.13588220    -0.78700
C194        C  0.25700068  0.76128647  0.10667475     1.01900
Cr195      Cr  0.26142741  0.82920347  0.06340946     1.93700
Cr196      Cr  0.33373479  0.87278008  0.08593196     1.93200
Cr197      Cr  0.28611419  0.83136541  0.14584630     1.39100
O198        O  0.29347745  0.84478504  0.09819563    -1.23700
O199        O  0.04322874  0.80386574  0.13128144    -0.86000
O200        O  0.98321798  0.75185691  0.12483441    -0.83000
C201        C  0.97938892  0.75582692  0.15971582     0.97500
O202        O  0.96512991  0.78682621  0.17137842    -0.83100
O203        O  0.94219357  0.86317648  0.17193469    -0.85700
C204        C  0.96333646  0.89229644  0.17407595     1.02000
O205        O  0.98707062  0.89948776  0.14785551    -0.78500
O206        O  0.04657469  0.86396120  0.11214532    -0.78700
C207        C  0.05935123  0.83609328  0.13124320     1.01900
O208        O  0.03972586  0.81642747  0.05364132    -0.86000
O209        O  0.96826095  0.77947723  0.05379762    -0.83100
C210        C  0.93471648  0.77118765  0.06450416     0.97500
O211        O  0.92274232  0.77854163  0.09810347    -0.83100
O212        O  0.90344818  0.85356137  0.10049013    -0.85700
C213        C  0.91215231  0.88233937  0.08042670     1.02000
O214        O  0.94530391  0.89552519  0.07917882    -0.78500
O215        O  0.00340017  0.86385931  0.04097744    -0.78700
C216        C  0.02933939  0.84139214  0.03076480     1.01900
Cr217      Cr  0.00630621  0.79130840  0.09216487     1.93700
Cr218      Cr  0.93654155  0.82106232  0.13391682     1.93200
Cr219      Cr  0.99446294  0.87694781  0.09602288     1.39100
O220        O  0.97848570  0.83066765  0.10752281    -1.23700
O221        O  0.41311772  0.95181197  0.34477331    -1.00400
O222        O  0.36227253  0.98494764  0.29857034    -0.83000
C223        C  0.34365182  0.00878591  0.28018486     0.97500
O224        O  0.34609111  0.04389301  0.28895155    -0.83100
O225        O  0.33041069  0.04940579  0.36996241    -0.85700
C226        C  0.33617124  0.04726731  0.40542360     1.02000
O227        O  0.37017333  0.04575907  0.41727752    -0.78500
O228        O  0.38950960  0.97513670  0.39809665    -0.78700
C229        C  0.39784082  0.94766706  0.37727471     1.01900
O230        O  0.47016275  0.00409470  0.31772234    -0.86000
O231        O  0.42023424  0.03722498  0.26941069    -0.83100
C232        C  0.42526904  0.07286585  0.27313543     0.97500
O233        O  0.41152255  0.09025611  0.30149990    -0.83100
O234        O  0.39328097  0.10179551  0.37794822    -0.85700
C235        C  0.42593864  0.09921993  0.39303099     1.02000
O236        O  0.44520736  0.06969225  0.38821508    -0.78500
O237        O  0.46568126  0.99449364  0.37871086    -0.78700
C238        C  0.48454120  0.99250331  0.34794726     1.01900
Cr239      Cr  0.41519286  0.99685901  0.31000163     1.93700
Cr240      Cr  0.37189813  0.06857889  0.33523291     1.93200
Cr241      Cr  0.41686180  0.02230559  0.39227504     1.39100
O242        O  0.40112822  0.02894680  0.34567952    -1.23700
O243        O  0.42545058  0.78856252  0.35792784    -0.86000
O244        O  0.47255705  0.74649715  0.39730053    -0.83000
C245        C  0.48431051  0.72003671  0.41765515     0.97500
O246        O  0.46930788  0.68693971  0.41571249    -0.83100
O247        O  0.38836371  0.68721169  0.43247394    -0.85700
C248        C  0.35319041  0.69366962  0.42785837     1.02000
O249        O  0.34156715  0.69968701  0.39461219    -0.78500
O250        O  0.37310475  0.76951440  0.38734982    -0.78700
C251        C  0.39770948  0.79440980  0.38058683     1.01900
O252        O  0.43702135  0.73754959  0.29310044    -0.86000
O253        O  0.48732353  0.69638425  0.33416722    -0.83100
C254        C  0.47910470  0.66176095  0.32892584     0.97500
O255        O  0.45116964  0.64691123  0.34603271    -0.83100
O256        O  0.37557647  0.64346640  0.36216673    -0.85700
C257        C  0.36039562  0.65215692  0.33045789     1.02000
O258        O  0.36305240  0.68541945  0.31751126    -0.78500
O259        O  0.38169589  0.76095137  0.30749840    -0.78700
C260        C  0.40845303  0.75644583  0.28378328     1.01900
Cr261      Cr  0.45284164  0.74002534  0.34669503     1.93700
Cr262      Cr  0.42080109  0.66919851  0.38797815     1.93200
Cr263      Cr  0.36819619  0.72758246  0.35238589     1.39100
O264        O  0.41442538  0.71216330  0.36280374    -1.23700
O265        O  0.54001502  0.66635961  0.88925857    -0.86000
O266        O  0.48717328  0.72344353  0.87635560    -0.83000
C267        C  0.48227006  0.72149207  0.84109800     0.97500
O268        O  0.46244592  0.69434651  0.82760597    -0.83100
O269        O  0.43147640  0.61884494  0.82374963    -0.85700
C270        C  0.45752372  0.59492781  0.81616702     1.02000
O271        O  0.48474920  0.59139103  0.83894539    -0.78500
O272        O  0.53123208  0.60527620  0.89976628    -0.78700
C273        C  0.55267749  0.63341212  0.89567899     1.01900
O274        O  0.50471921  0.65048625  0.95912555    -0.86000
O275        O  0.44782127  0.70005948  0.94338543    -0.83100
C276        C  0.41981304  0.71507488  0.92747465     0.97500
O277        O  0.41291787  0.70804523  0.89305907    -0.83100
O278        O  0.39091316  0.63220295  0.89557558    -0.85700
C279        C  0.39502984  0.59684456  0.90191746     1.02000
O280        O  0.42433196  0.57999012  0.89041819    -0.78500
O281        O  0.47170587  0.59835261  0.95196013    -0.78700
C282        C  0.49224898  0.61968558  0.97241243     1.01900
Cr283      Cr  0.49251174  0.68219734  0.91470423     1.93700
Cr284      Cr  0.42733268  0.66217560  0.86172397     1.93200
Cr285      Cr  0.47690053  0.59804857  0.89467934     1.39100
O286        O  0.46585435  0.64741257  0.89018725    -1.23700
O287        O  0.72071920  0.61891939  0.96089365    -0.86000
O288        O  0.78925185  0.62147408  0.99684213    -0.83000
C289        C  0.78971969  0.58631143  0.99128692     0.97500
O290        O  0.80271286  0.57463519  0.95943748    -0.83100
O291        O  0.81928282  0.57647679  0.87950230    -0.85700
C292        C  0.79118634  0.56735638  0.85931863     1.02000
O293        O  0.76088972  0.58649834  0.86178613    -0.78500
O294        O  0.70899176  0.63050882  0.90034815    -0.78700
C295        C  0.69957363  0.61714052  0.93250063     1.01900
O296        O  0.72842467  0.69544665  0.93915832    -0.86000
O297        O  0.80305813  0.69348800  0.96454847    -0.83100
C298        C  0.83618106  0.68191618  0.97157259     0.97500
O299        O  0.84580000  0.64780049  0.96413391    -0.83100
O300        O  0.85059381  0.65249731  0.88742201    -0.85700
C301        C  0.83583903  0.66486832  0.85708410     1.02000
O302        O  0.80427510  0.65260650  0.84604676    -0.78500
O303        O  0.75332270  0.69792476  0.88266589    -0.78700
C304        C  0.73425948  0.71337989  0.90888194     1.01900
Cr305      Cr  0.76202178  0.65591424  0.96199587     1.93700
Cr306      Cr  0.82665488  0.61367240  0.92260791     1.93200
Cr307      Cr  0.75846866  0.64151513  0.87623618     1.39100
O308        O  0.78227992  0.63671085  0.91966720    -1.23700
O309        O  0.34466763  0.40050239  0.95600483    -0.86000
O310        O  0.29560519  0.35393363  0.99169533    -0.83000
C311        C  0.28055586  0.33333095  0.01662557     0.97500
O312        O  0.29247094  0.33468401  0.05057878    -0.83100
O313        O  0.37386052  0.31903859  0.05403140    -0.85700
C314        C  0.40939841  0.32534358  0.05119642     1.02000
O315        O  0.42084717  0.35946572  0.04772625    -0.78500
O316        O  0.39837466  0.37580097  0.97685430    -0.78700
C317        C  0.37565287  0.38265434  0.95071035     1.01900
O318        O  0.32405999  0.46087944  0.00855469    -0.86000
O319        O  0.27370593  0.41383161  0.04436109    -0.83100
C320        C  0.27971379  0.41781458  0.07949799     0.97500
O321        O  0.30729595  0.40126258  0.09492504    -0.83100
O322        O  0.38239286  0.38394924  0.10374622    -0.85700
C323        C  0.39805213  0.41644331  0.09987644     1.02000
O324        O  0.39416656  0.43473445  0.06960808    -0.78500
O325        O  0.38365134  0.45302488  0.99403256    -0.78700
C326        C  0.35425427  0.47366648  0.99432816     1.01900
Cr327      Cr  0.31218541  0.40597865  0.00249292     1.93700
Cr328      Cr  0.33941423  0.36128805  0.07269245     1.93200
Cr329      Cr  0.39579014  0.40493643  0.02317511     1.39100
O330        O  0.34884041  0.39012653  0.03236168    -1.23700
O331        O  0.35334547  0.40825458  0.79247196    -0.86000
O332        O  0.39581634  0.45583777  0.75143564    -0.83000
C333        C  0.41443194  0.47020394  0.72464251     0.97500
O334        O  0.41070240  0.45730426  0.69108738    -0.83100
O335        O  0.42681140  0.37663932  0.68858831    -0.85700
C336        C  0.42272365  0.34117012  0.69443615     1.02000
O337        O  0.38944476  0.32844781  0.69992801    -0.78500
O338        O  0.38036383  0.35561236  0.77129120    -0.78700
C339        C  0.37381449  0.37898146  0.79728399     1.01900
O340        O  0.28898548  0.42457837  0.74443085    -0.86000
O341        O  0.33241284  0.47540898  0.70405754    -0.83100
C342        C  0.32683377  0.46982404  0.66908995     0.97500
O343        O  0.34095619  0.44120139  0.65265079    -0.83100
O344        O  0.35635651  0.36545145  0.64457309    -0.85700
C345        C  0.32386489  0.35109025  0.65266184     1.02000
O346        O  0.31199043  0.35052590  0.68637052    -0.78500
O347        O  0.30049263  0.36625531  0.76184380    -0.78700
C348        C  0.27824296  0.39456976  0.76067034     1.01900
Cr349      Cr  0.34365068  0.43829531  0.74566443     1.93700
Cr350      Cr  0.38254825  0.40937264  0.67239608     1.93200
Cr351      Cr  0.34632903  0.35367302  0.72861525     1.39100
O352        O  0.35765658  0.40081389  0.71547819    -1.23700
O353        O  0.06600627  0.21121786  0.86854527    -0.86000
O354        O  0.01625325  0.27314102  0.87766353    -0.83000
C355        C  0.02202665  0.27245982  0.91254753     0.97500
O356        O  0.05173523  0.28878927  0.92479676    -0.83100
O357        O  0.12854199  0.31562437  0.92479817    -0.85700
C358        C  0.15267588  0.28912898  0.92900559     1.02000
O359        O  0.15350670  0.26196772  0.90579304    -0.78500
O360        O  0.12706739  0.21305536  0.85310276    -0.78700
C361        C  0.09781922  0.19515816  0.86351064     1.01900
O362        O  0.08203435  0.23615815  0.79557910    -0.86000
O363        O  0.04328957  0.30228608  0.80850993    -0.83100
C364        C  0.03117988  0.33236110  0.82372869     0.97500
O365        O  0.03895559  0.33992505  0.85809630    -0.83100
O366        O  0.11571189  0.35722593  0.85546021    -0.85700
C367        C  0.14930587  0.35000450  0.84385132     1.02000
O368        O  0.16387244  0.31764570  0.84825971    -0.78500
O369        O  0.13534319  0.26781531  0.79480672    -0.78700
C370        C  0.11194083  0.24598550  0.77884973     1.01900
Cr371      Cr  0.05504883  0.25792438  0.83948079     1.93700
Cr372      Cr  0.08411688  0.32242454  0.88916766     1.93200
Cr373      Cr  0.14097967  0.26666703  0.85131738     1.39100
O374        O  0.09390228  0.28249811  0.85996417    -1.23700
O375        O  0.13303448  0.02423587  0.80764239    -0.86000
O376        O  0.13741783  0.95961313  0.76164368    -0.83000
C377        C  0.17244304  0.96145331  0.76621658     0.97500
O378        O  0.18581708  0.94702839  0.79638692    -0.83100
O379        O  0.18807078  0.92279288  0.87413720    -0.85700
C380        C  0.19222117  0.94871080  0.89867938     1.02000
O381        O  0.16945980  0.97648271  0.89961157    -0.78500
O382        O  0.11901907  0.02688856  0.86896725    -0.78700
C383        C  0.12932414  0.04255136  0.83826506     1.01900
O384        O  0.05931402  0.00504615  0.82723997    -0.86000
O385        O  0.06845096  0.93450472  0.79280927    -0.83100
C386        C  0.08320269  0.90359065  0.78202503     0.97500
O387        O  0.11793810  0.89608635  0.78854267    -0.83100
O388        O  0.11893126  0.88170762  0.86600664    -0.85700
C389        C  0.10765080  0.89071129  0.89923482     1.02000
O390        O  0.10959596  0.92431987  0.91123319    -0.78500
O391        O  0.05790865  0.97416050  0.88060835    -0.78700
C392        C  0.04190165  0.99559376  0.85684255     1.01900
Cr393      Cr  0.10138643  0.97873310  0.80060474     1.93700
Cr394      Cr  0.15109484  0.91501400  0.83140380     1.93200
Cr395      Cr  0.11471200  0.97396009  0.88624891     1.39100
O396        O  0.12247861  0.95566689  0.84013695    -1.23700
O397        O  0.92016552  0.70974547  0.63868459    -0.86000
O398        O  0.98216452  0.75830466  0.63138439    -0.83000
C399        C  0.98069753  0.76793951  0.59719282     0.97500
O400        O  0.95433473  0.78995352  0.58597509    -0.83100
O401        O  0.87995585  0.82374920  0.58695574    -0.85700
C402        C  0.85391118  0.79923115  0.58090653     1.02000
O403        O  0.84942252  0.77207277  0.60397425    -0.78500
O404        O  0.86272041  0.72180071  0.66045674    -0.78700
C405        C  0.88633118  0.69963859  0.64548249     1.01900
O406        O  0.91024589  0.73616654  0.71406804    -0.86000
O407        O  0.96396020  0.79075169  0.70186467    -0.83100
C408        C  0.98008573  0.81978805  0.68815393     0.97500
O409        O  0.97234010  0.83108142  0.65484658    -0.83100
O410        O  0.89944139  0.86007344  0.66012986    -0.85700
C411        C  0.86437560  0.85819131  0.66822577     1.02000
O412        O  0.84522310  0.83040596  0.65750615    -0.78500
O413        O  0.86616460  0.77984292  0.71507522    -0.78700
C414        C  0.88490594  0.75418198  0.73194797     1.01900
Cr415      Cr  0.94156396  0.75132755  0.66968311     1.93700
Cr416      Cr  0.92520254  0.82346666  0.62349062     1.93200
Cr417      Cr  0.85987167  0.77683785  0.65866656     1.39100
O418        O  0.90894669  0.78394622  0.65023633    -1.23700
O419        O  0.86863105  0.52889130  0.68549945    -0.86000
O420        O  0.87269310  0.47209445  0.74168480    -0.83000
C421        C  0.83793922  0.46798065  0.73770214     0.97500
O422        O  0.82701776  0.45104694  0.70791624    -0.83100
O423        O  0.82771651  0.42495730  0.63148341    -0.85700
C424        C  0.82670029  0.44627211  0.60227132     1.02000
O425        O  0.85306213  0.46983067  0.59592578    -0.78500
O426        O  0.89149330  0.52839594  0.62688240    -0.78700
C427        C  0.87221746  0.54409044  0.65306498     1.01900
O428        O  0.94666115  0.52123906  0.67486069    -0.86000
O429        O  0.94401806  0.45335725  0.71694336    -0.83100
C430        C  0.93287401  0.42071510  0.72765812     0.97500
O431        O  0.90007726  0.40793365  0.71868964    -0.83100
O432        O  0.89897080  0.38493424  0.64348532    -0.85700
C433        C  0.91758173  0.39201246  0.61311843     1.02000
O434        O  0.91920320  0.42479723  0.59931427    -0.78500
O435        O  0.95963330  0.48121407  0.63041436    -0.78700
C436        C  0.97002075  0.50795138  0.65152148     1.01900
Cr437      Cr  0.90659009  0.49133843  0.70134323     1.93700
Cr438      Cr  0.86510402  0.42029482  0.67481109     1.93200
Cr439      Cr  0.90478788  0.47501288  0.61701959     1.39100
O440        O  0.89200334  0.46142866  0.66367336    -1.23700
O441        O  0.96024508  0.33663896  0.41200806    -0.86000
O442        O  0.99603348  0.28849410  0.36388671    -0.83000
C443        C  0.02108312  0.27117523  0.34528671     0.97500
O444        O  0.05573222  0.28081789  0.34902262    -0.83100
O445        O  0.06055806  0.36112378  0.33357984    -0.85700
C446        C  0.05705892  0.39674457  0.33829423     1.02000
O447        O  0.05544053  0.40984587  0.37191150    -0.78500
O448        O  0.98442931  0.38998319  0.38906098    -0.78700
C449        C  0.95697969  0.36830396  0.39500310     1.01900
O450        O  0.00949855  0.31216700  0.47212392    -0.86000
O451        O  0.04568721  0.26216635  0.42426680    -0.83100
C452        C  0.08135685  0.26568499  0.42849651     0.97500
O453        O  0.09876138  0.29447273  0.41571276    -0.83100
O454        O  0.11095467  0.37088632  0.39848561    -0.85700
C455        C  0.10695031  0.38592249  0.43127486     1.02000
O456        O  0.07575848  0.38309384  0.44833603    -0.78500
O457        O  0.00076315  0.37343375  0.46632560    -0.78700
C458        C  0.99895340  0.34334941  0.48608934     1.01900
Cr459      Cr  0.00534838  0.30240653  0.41697698     1.93700
Cr460      Cr  0.07861748  0.32768037  0.37574593     1.93200
Cr461      Cr  0.03010321  0.38561829  0.41811782     1.39100
O462        O  0.03779508  0.33829096  0.40358371    -1.23700
O463        O  0.80085353  0.34703900  0.40868039    -0.86000
O464        O  0.76159447  0.38477489  0.46087362    -0.83000
C465        C  0.73548135  0.40380259  0.47583419     0.97500
O466        O  0.70192576  0.40261722  0.46229070    -0.83100
O467        O  0.69767693  0.42317332  0.38243385    -0.85700
C468        C  0.70299323  0.42050498  0.34679777     1.02000
O469        O  0.70809107  0.38777642  0.33282229    -0.78500
O470        O  0.77995877  0.37881962  0.35901977    -0.78700
C471        C  0.80558915  0.37110380  0.38213056     1.01900
O472        O  0.75035102  0.28174616  0.42025789    -0.86000
O473        O  0.71285598  0.32090631  0.47550466    -0.83100
C474        C  0.67781850  0.31624369  0.46993608     0.97500
O475        O  0.66156477  0.33371223  0.44340788    -0.83100
O476        O  0.65296791  0.35228885  0.36914482    -0.85700
C477        C  0.66111506  0.32067967  0.35279019     1.02000
O478        O  0.69500931  0.30961785  0.35038672    -0.78500
O479        O  0.77076441  0.29830074  0.36433966    -0.78700
C480        C  0.76812321  0.27362947  0.39040811     1.01900
Cr481      Cr  0.75405749  0.33482001  0.43861853     1.93700
Cr482      Cr  0.68165051  0.37696363  0.41352171     1.93200
Cr483      Cr  0.73728292  0.34420559  0.35511293     1.39100
O484        O  0.72425479  0.35246420  0.40288544    -1.23700
O485        O  0.88699554  0.04855963  0.22078313    -0.86000
O486        O  0.87917525  0.00193240  0.28347475    -0.83000
C487        C  0.91433019  0.00508049  0.28398804     0.97500
O488        O  0.92733339  0.03558554  0.29822015    -0.83100
O489        O  0.92914830  0.11392118  0.32105487    -0.85700
C490        C  0.93456616  0.14046094  0.29717052     1.02000
O491        O  0.91283149  0.14350786  0.26903805    -0.78500
O492        O  0.87146004  0.10901880  0.21358231    -0.78700
C493        C  0.88881379  0.07932110  0.20242926     1.01900
O494        O  0.80981241  0.06737189  0.22692701    -0.86000
O495        O  0.80904395  0.03323168  0.29926152    -0.83100
C496        C  0.81984512  0.02174322  0.33139605     0.97500
O497        O  0.85324998  0.02988251  0.34298101    -0.83100
O498        O  0.85713940  0.10763761  0.35796843    -0.85700
C499        C  0.84517115  0.14018254  0.34755008     1.02000
O500        O  0.84684272  0.15092321  0.31358686    -0.78500
O501        O  0.80258618  0.11830074  0.26030580    -0.78700
C502        C  0.78921340  0.09446169  0.23743788     1.01900
Cr503      Cr  0.84760544  0.04112430  0.25953635     1.93700
Cr504      Cr  0.89034027  0.07186529  0.32693225     1.93200
Cr505      Cr  0.85879279  0.12665666  0.26540392     1.39100
O506        O  0.86556655  0.08081480  0.28459036    -1.23700
O507        O  0.84979029  0.07534825  0.04553892    -0.86000
O508        O  0.80272174  0.12727685  0.01327363    -0.83000
C509        C  0.78566071  0.14717855  0.98942537     0.97500
O510        O  0.79607512  0.14571389  0.95450908    -0.83100
O511        O  0.87724126  0.16158279  0.94867388    -0.85700
C512        C  0.91280046  0.15583277  0.95125239     1.02000
O513        O  0.92450426  0.12172537  0.95337833    -0.78500
O514        O  0.90188310  0.10327262  0.02436435    -0.78700
C515        C  0.88184765  0.09067859  0.05101419     1.01900
O516        O  0.82610385  0.02008330  0.99131800    -0.86000
O517        O  0.77687579  0.07060193  0.95990013    -0.83100
C518        C  0.78216640  0.06547817  0.92466778     0.97500
O519        O  0.81067869  0.07979510  0.90791269    -0.83100
O520        O  0.88739938  0.09688785  0.89686734    -0.85700
C521        C  0.90229792  0.06386022  0.90089443     1.02000
O522        O  0.89688147  0.04636658  0.93117056    -0.78500
O523        O  0.88638132  0.02619354  0.00358741    -0.78700
C524        C  0.85681825  0.00585469  0.00217400     1.01900
Cr525      Cr  0.81627512  0.07483122  0.00030400     1.93700
Cr526      Cr  0.84331566  0.11956607  0.92967829     1.93200
Cr527      Cr  0.89927220  0.07552889  0.97722411     1.39100
O528        O  0.85269299  0.09048383  0.96943264    -1.23700
C529        C  0.91141726  0.11597927  0.14792451    -0.27000
C530        C  0.90614259  0.08006180  0.16485712    -0.15000
C531        C  0.90547188  0.04712864  0.14228062     0.35600
C532        C  0.90129267  0.05142131  0.10350053    -0.26400
C533        C  0.89812334  0.08784475  0.08790229    -0.15700
C534        C  0.90651214  0.12030184  0.10903780     0.36700
N535        N  0.90572249  0.15739764  0.09182276    -0.89900
H536        H  0.91392198  0.14113468  0.16546086     0.17800
H537        H  0.89706661  0.02641094  0.08608799     0.17800
N538        N  0.90462293  0.00978119  0.15869861    -0.88900
H539        H  0.92817621  0.15870006  0.07217472     0.35200
H540        H  0.91090809  0.17842453  0.11200753     0.40300
H541        H  0.92711727  0.99413559  0.14704768     0.39900
H542        H  0.87928630  0.99654216  0.15088276     0.34800
C543        C  0.77160704  0.20220489  0.39295511    -0.27000
C544        C  0.78963453  0.23754629  0.38761169    -0.15000
C545        C  0.82870575  0.23839248  0.37886495     0.35600
C546        C  0.84846566  0.20430513  0.37289783    -0.26400
C547        C  0.82963658  0.16907861  0.37367537    -0.15700
C548        C  0.79120158  0.16794377  0.38517438     0.36700
N549        N  0.77134203  0.13242268  0.38605628    -0.89900
H550        H  0.74168793  0.20127947  0.40043874     0.17800
H551        H  0.87783420  0.20567868  0.36334182     0.17800
N552        N  0.84817180  0.27399617  0.37472038    -0.88900
H553        H  0.76014279  0.12865360  0.41339146     0.35200
H554        H  0.74863856  0.13425297  0.36732762     0.40300
H555        H  0.85964009  0.27540452  0.34727258     0.39900
H556        H  0.87064253  0.27441971  0.39380700     0.34800
C557        C  0.96206953  0.20566521  0.28376353    -0.27000
C558        C  0.96441144  0.17088688  0.30390404    -0.15000
C559        C  0.99193423  0.16862516  0.33311246     0.35600
C560        C  0.01392300  0.20073520  0.34254759    -0.26400
C561        C  0.00885979  0.23611075  0.32467649    -0.15700
C562        C  0.98333938  0.23818752  0.29423790     0.36700
N563        N  0.97771996  0.27394927  0.27530094    -0.89900
H564        H  0.94162772  0.20843906  0.26124570     0.17800
H565        H  0.03282076  0.19882815  0.36650670     0.17800
N566        N  0.99740977  0.13474889  0.35498879    -0.88900
H567        H  0.95776810  0.27112065  0.25375811     0.35200
H568        H  0.00340190  0.28135498  0.26212150     0.40300
H569        H  0.00282122  0.11210770  0.33650412     0.39900
H570        H  0.97283738  0.12923706  0.37092668     0.34800
C571        C  0.89927860  0.40260330  0.41023205    -0.27000
C572        C  0.92015051  0.38107623  0.38411765    -0.15000
C573        C  0.90378088  0.36708186  0.35094131     0.35600
C574        C  0.86461919  0.37040490  0.34694140    -0.26400
C575        C  0.84293401  0.38634345  0.37634520    -0.15700
C576        C  0.86016721  0.40504206  0.40666113     0.36700
N577        N  0.83758771  0.42297044  0.43561419    -0.89900
H578        H  0.91269345  0.41398349  0.43528900     0.17800
H579        H  0.85070485  0.35606324  0.32374040     0.17800
N580        N  0.92645429  0.34659891  0.32362490    -0.88900
H581        H  0.84618092  0.45134392  0.43763439     0.35200
H582        H  0.84326785  0.40963727  0.46147323     0.40300
H583        H  0.94618030  0.36568144  0.31206167     0.39900
H584        H  0.90965363  0.33726458  0.30122168     0.34800
C585        C  0.77143931  0.45436053  0.50894896    -0.27000
C586        C  0.74605745  0.42373768  0.51158018    -0.15000
C587        C  0.74345995  0.40391767  0.54652055     0.35600
C588        C  0.76787533  0.41345315  0.57683066    -0.26400
C589        C  0.79555200  0.44226090  0.57313210    -0.15700
C590        C  0.79575681  0.46392446  0.53900501     0.36700
N591        N  0.82209601  0.49454361  0.53356388    -0.89900
H592        H  0.77471963  0.46912032  0.48210103     0.17800
H593        H  0.76683737  0.39659631  0.60254965     0.17800
N594        N  0.71838343  0.37180430  0.54984359    -0.88900
H595        H  0.80664930  0.51923294  0.52766702     0.35200
H596        H  0.83914309  0.48830770  0.50990368     0.40300
H597        H  0.69064847  0.38187420  0.54729982     0.39900
H598        H  0.72026852  0.35947307  0.57680671     0.34800
C599        C  0.97877333  0.36803641  0.58914817    -0.27000
C600        C  0.93905764  0.36327340  0.59102636    -0.15000
C601        C  0.92097084  0.34530634  0.56051545     0.35600
C602        C  0.94196712  0.33555854  0.52765504    -0.26400
C603        C  0.98073407  0.34454500  0.52423562    -0.15700
C604        C  0.99956121  0.35948703  0.55595962     0.36700
N605        N  0.03926670  0.36825503  0.55442871    -0.89900
H606        H  0.99299666  0.38283058  0.61187291     0.17800
H607        H  0.92718904  0.32402330  0.50347990     0.17800
N608        N  0.88057104  0.34069825  0.56123142    -0.88900
H609        H  0.04404366  0.38800990  0.53269984     0.35200
H610        H  0.05406902  0.34332764  0.54765467     0.40300
H611        H  0.87461434  0.31187681  0.55711762     0.39900
H612        H  0.86937945  0.35590096  0.53842452     0.34800
C613        C  0.85704139  0.64511094  0.67497168    -0.27000
C614        C  0.87448579  0.66062983  0.64250604    -0.15000
C615        C  0.87921620  0.63875123  0.60952713     0.35600
C616        C  0.87123884  0.60009861  0.61179854    -0.26400
C617        C  0.86057053  0.58332820  0.64670362    -0.15700
C618        C  0.84994376  0.60647367  0.67738979     0.36700
N619        N  0.83496365  0.59077252  0.71196749    -0.89900
H620        H  0.85145943  0.66259102  0.69975786     0.17800
H621        H  0.87741217  0.58266124  0.58716037     0.17800
N622        N  0.89301976  0.65420430  0.57417107    -0.88900
H623        H  0.80877416  0.60371791  0.71763242     0.35200
H624        H  0.85334008  0.59779172  0.73394759     0.40300
H625        H  0.89654067  0.68360029  0.57573047     0.39900
H626        H  0.87203246  0.64971884  0.55392780     0.34800
C627        C  0.06239696  0.88295804  0.71888071    -0.27000
C628        C  0.06049843  0.87838150  0.75826931    -0.15000
C629        C  0.03360965  0.85365479  0.77442023     0.35600
C630        C  0.00817944  0.83441206  0.75096035    -0.26400
C631        C  0.00868146  0.84000173  0.71136424    -0.15700
C632        C  0.03670233  0.86418506  0.69511669     0.36700
N633        N  0.03932230  0.86952306  0.65475556    -0.89900
H634        H  0.08313866  0.90240258  0.70675440     0.17800
H635        H  0.98729854  0.81574712  0.76401321     0.17800
N636        N  0.03174261  0.84853104  0.81469568    -0.88900
H637        H  0.06357200  0.88527676  0.64754248     0.35200
H638        H  0.01621711  0.88621513  0.64674731     0.40300
H639        H  0.03565234  0.81961907  0.82051759     0.39900
H640        H  0.00450094  0.85614146  0.82405581     0.34800
C641        C  0.99804489  0.05110117  0.85584389    -0.27000
C642        C  0.00363999  0.01202380  0.86316045    -0.15000
C643        C  0.97214583  0.98955457  0.87350335     0.35600
C644        C  0.93665866  0.00684331  0.87877984    -0.26400
C645        C  0.93195909  0.04673536  0.87602088    -0.15700
C646        C  0.96262000  0.06864114  0.86242722     0.36700
N647        N  0.95869901  0.10892656  0.85771105    -0.89900
H648        H  0.02183866  0.06857038  0.84691832     0.17800
H649        H  0.91331150  0.98937115  0.88901443     0.17800
N650        N  0.97541126  0.94932169  0.87931878    -0.88900
H651        H  0.96550497  0.11554389  0.82954823     0.35200
H652        H  0.97856561  0.12234825  0.87495323     0.40300
H653        H  0.99433806  0.94442351  0.90139572     0.39900
H654        H  0.98653491  0.93708494  0.85457701     0.34800
C655        C  0.92911209  0.22529647  0.93971741    -0.27000
C656        C  0.94130372  0.18832152  0.94930301    -0.15000
C657        C  0.98112060  0.18312834  0.95509558     0.35600
C658        C  0.00689339  0.21328634  0.94863826    -0.26400
C659        C  0.99479942  0.24897968  0.93566777    -0.15700
C660        C  0.95528640  0.25510814  0.93246759     0.36700
N661        N  0.94169970  0.29136560  0.91992137    -0.89900
H662        H  0.89915058  0.23077373  0.93575709     0.17800
H663        H  0.03707402  0.20754922  0.95034199     0.17800
N664        N  0.99689021  0.14730065  0.96625230    -0.88900
H665        H  0.92309352  0.30194153  0.94068746     0.35200
H666        H  0.92627562  0.28722080  0.89513331     0.40300
H667        H  0.99232883  0.12731990  0.94491019     0.39900
H668        H  0.98367437  0.13845785  0.99145945     0.34800
C669        C  0.98310601  0.41691994  0.77684307    -0.27000
C670        C  0.95752377  0.39816601  0.75283991    -0.15000
C671        C  0.95587119  0.35816838  0.75336790     0.35600
C672        C  0.97959581  0.33773236  0.77750462    -0.26400
C673        C  0.00519008  0.35630594  0.80144720    -0.15700
C674        C  0.00673260  0.39644868  0.80123732     0.36700
N675        N  0.03277698  0.41705373  0.82433521    -0.89900
H676        H  0.98467613  0.44771777  0.77679589     0.17800
H677        H  0.97816642  0.30691448  0.77724981     0.17800
N678        N  0.93100063  0.33803703  0.72861163    -0.88900
H679        H  0.06025471  0.40761527  0.81810993     0.35200
H680        H  0.02654797  0.41114618  0.85282867     0.40300
H681        H  0.91298989  0.32107040  0.74524110     0.39900
H682        H  0.94750023  0.32009880  0.71143571     0.34800
C683        C  0.08584983  0.13673636  0.83031317    -0.27000
C684        C  0.10155257  0.15445338  0.86196080    -0.15000
C685        C  0.13169268  0.13726020  0.88128414     0.35600
C686        C  0.14464704  0.10165121  0.86974768    -0.26400
C687        C  0.12842583  0.08354839  0.83856849    -0.15700
C688        C  0.09978842  0.10172925  0.81787681     0.36700
N689        N  0.08431439  0.08427771  0.78478880    -0.89900
H690        H  0.06462203  0.15131833  0.81364498     0.17800
H691        H  0.16607519  0.08720159  0.88626363     0.17800
N692        N  0.14951616  0.15642521  0.91215673    -0.88900
H693        H  0.08871600  0.10276743  0.76189694     0.35200
H694        H  0.05503682  0.08125486  0.78884105     0.40300
H695        H  0.17829971  0.15978529  0.90534019     0.39900
H696        H  0.14747515  0.13894817  0.93610878     0.34800
C697        C  0.20770529  0.38506304  0.76262595    -0.27000
C698        C  0.24140609  0.39345063  0.78164712    -0.15000
C699        C  0.24001317  0.39804758  0.82144276     0.35600
C700        C  0.20638058  0.39005506  0.84165430    -0.26400
C701        C  0.17362218  0.37756678  0.82308600    -0.15700
C702        C  0.17374155  0.37741828  0.78283759     0.36700
N703        N  0.14085944  0.36641270  0.76174266    -0.89900
H704        H  0.20820709  0.38237298  0.73202777     0.17800
H705        H  0.20701838  0.38984499  0.87237445     0.17800
N706        N  0.27288816  0.40908413  0.84223021    -0.88900
H707        H  0.13373047  0.38924205  0.74428742     0.35200
H708        H  0.11738592  0.36219013  0.77976303     0.40300
H709        H  0.28245354  0.43526236  0.83155352     0.39900
H710        H  0.29409632  0.38886155  0.83772587     0.34800
C711        C  0.24923764  0.28352364  0.97751748    -0.27000
C712        C  0.24590436  0.31199578  0.00518028    -0.15000
C713        C  0.20964088  0.32792090  0.01228139     0.35600
C714        C  0.17866568  0.31819316  0.98893072    -0.26400
C715        C  0.18272684  0.29193102  0.95903575    -0.15700
C716        C  0.21804371  0.27272625  0.95519599     0.36700
N717        N  0.22330311  0.24383912  0.92702242    -0.89900
H718        H  0.27689174  0.27125692  0.97145654     0.17800
H719        H  0.15175633  0.33268148  0.99291084     0.17800
N720        N  0.20513933  0.35634436  0.04119710    -0.88900
H721        H  0.23183661  0.21889234  0.94068534     0.35200
H722        H  0.24524131  0.25237194  0.90866606     0.40300
H723        H  0.21093253  0.34338389  0.06725349     0.39900
H724        H  0.17698579  0.36552487  0.04274248     0.34800
C725        C  0.40986511  0.39578233  0.85284836    -0.27000
C726        C  0.38574996  0.37016007  0.83492403    -0.15000
C727        C  0.36529623  0.34270375  0.85562564     0.35600
C728        C  0.36573066  0.34418128  0.89494025    -0.26400
C729        C  0.38635369  0.37270660  0.91278545    -0.15700
C730        C  0.41035286  0.39717391  0.89219453     0.36700
N731        N  0.43210798  0.42572173  0.91109158    -0.89900
H732        H  0.42534403  0.41695471  0.83645798     0.17800
H733        H  0.34724943  0.32555506  0.91133098     0.17800
N734        N  0.34095843  0.31625017  0.83685498    -0.88900
H735        H  0.42334965  0.45240339  0.90133305     0.35200
H736        H  0.46061089  0.42207989  0.90328745     0.40300
H737        H  0.31315626  0.32062888  0.84665105     0.39900
H738        H  0.34910329  0.28877774  0.84476524     0.34800
C739        C  0.78047612  0.54159249  0.79338573    -0.27000
C740        C  0.79518742  0.53608676  0.83006922    -0.15000
C741        C  0.81677189  0.50267938  0.83636633     0.35600
C742        C  0.82482515  0.47753113  0.80623046    -0.26400
C743        C  0.81338873  0.48486634  0.76868042    -0.15700
C744        C  0.78958937  0.51696696  0.76271599     0.36700
N745        N  0.77659174  0.52739088  0.72566430    -0.89900
H746        H  0.76392539  0.56692851  0.78768859     0.17800
H747        H  0.84342887  0.45357587  0.81162597     0.17800
N748        N  0.83186412  0.49382153  0.87286272    -0.88900
H749        H  0.74697609  0.52700203  0.72646240     0.35200
H750        H  0.78487907  0.50744495  0.70526236     0.40300
H751        H  0.80960681  0.49397143  0.89273899     0.39900
H752        H  0.85160960  0.51462643  0.88018229     0.34800
C753        C  0.90194099  0.71650741  0.78932381    -0.27000
C754        C  0.87576969  0.74081503  0.77106891    -0.15000
C755        C  0.83947364  0.74574155  0.78748012     0.35600
C756        C  0.82873254  0.72294429  0.81851504    -0.26400
C757        C  0.85323114  0.69504219  0.83331737    -0.15700
C758        C  0.89083991  0.69346497  0.82014635     0.36700
N759        N  0.91690191  0.66668682  0.83595970    -0.89900
H760        H  0.93043381  0.71315932  0.77786259     0.17800
H761        H  0.79995227  0.72504843  0.82947015     0.17800
N762        N  0.81260957  0.77139458  0.77085736    -0.88900
H763        H  0.94034126  0.68180331  0.84580318     0.35200
H764        H  0.92630732  0.64865581  0.81423702     0.40300
H765        H  0.82399867  0.79868114  0.77286034     0.39900
H766        H  0.78717536  0.77163204  0.78646839     0.34800
C767        C  0.47556067  0.53374085  0.78334033    -0.27000
C768        C  0.45373174  0.56748120  0.78333708    -0.15000
C769        C  0.42567804  0.57117844  0.75479686     0.35600
C770        C  0.41768490  0.54034760  0.73061005    -0.26400
C771        C  0.43626604  0.50513827  0.73425800    -0.15700
C772        C  0.46678204  0.50260139  0.75959558     0.36700
N773        N  0.48680887  0.46717420  0.76319436    -0.89900
H774        H  0.49769764  0.53028462  0.80410157     0.17800
H775        H  0.39381713  0.54266391  0.71161958     0.17800
N776        N  0.40353683  0.60508474  0.75049600    -0.88900
H777        H  0.50815821  0.46944044  0.78336494     0.35200
H778        H  0.50037444  0.46179564  0.73720054     0.40300
H779        H  0.42191221  0.62825934  0.74778133     0.39900
H780        H  0.38611895  0.60865411  0.77444063     0.34800
C781        C  0.36863328  0.57696636  0.96414413    -0.27000
C782        C  0.36835269  0.57311104  0.92442840    -0.15000
C783        C  0.35685565  0.53804171  0.90878528     0.35600
C784        C  0.34968911  0.50673403  0.93273475    -0.26400
C785        C  0.35396680  0.50954016  0.97208683    -0.15700
C786        C  0.36183516  0.54531086  0.98806058     0.36700
N787        N  0.36530459  0.54903952  0.02825956    -0.89900
H788        H  0.37839879  0.60335460  0.97653811     0.17800
H789        H  0.34329185  0.47926170  0.92042528     0.17800
N790        N  0.35642211  0.53343225  0.86829608    -0.88900
H791        H  0.34595706  0.56972585  0.03741269     0.35200
H792        H  0.39266425  0.55893231  0.03393406     0.40300
H793        H  0.33543229  0.55148760  0.85774360     0.39900
H794        H  0.34855172  0.50570103  0.86113096     0.34800
C795        C  0.61015348  0.59489313  0.89339726    -0.27000
C796        C  0.59133270  0.62731695  0.90711834    -0.15000
C797        C  0.60457740  0.64605832  0.93969517     0.35600
C798        C  0.63883442  0.63449190  0.95526585    -0.26400
C799        C  0.66053714  0.60654596  0.93715644    -0.15700
C800        C  0.64467448  0.58393242  0.90861584     0.36700
N801        N  0.66475295  0.55211822  0.89245456    -0.89900
H802        H  0.59803655  0.57826504  0.87068604     0.17800
H803        H  0.65115151  0.65118675  0.97783831     0.17800
N804        N  0.58307019  0.67634332  0.95700775    -0.88900
H805        H  0.64796925  0.52794903  0.89687838     0.35200
H806        H  0.68994517  0.54722322  0.90708088     0.40300
H807        H  0.58299012  0.69927968  0.93816292     0.39900
H808        H  0.59626612  0.68589271  0.98164856     0.34800
C809        C  0.35915241  0.89109359  0.38372235    -0.27000
C810        C  0.39269647  0.91012330  0.39198167    -0.15000
C811        C  0.42376312  0.89105163  0.40766600     0.35600
C812        C  0.42322475  0.85159593  0.40887912    -0.26400
C813        C  0.39180730  0.83215915  0.39490568    -0.15700
C814        C  0.35838743  0.85162382  0.38534015     0.36700
N815        N  0.32544907  0.83142819  0.37302088    -0.89900
H816        H  0.33505711  0.90646983  0.37248938     0.17800
H817        H  0.44855450  0.83621151  0.41706872     0.17800
N818        N  0.45663043  0.91153120  0.41974390    -0.88900
H819        H  0.30249565  0.83963552  0.39031663     0.35200
H820        H  0.31963141  0.83980127  0.34528947     0.40300
H821        H  0.48027379  0.90089887  0.40507768     0.39900
H822        H  0.46053727  0.90561835  0.44848915     0.34800
C823        C  0.93136831  0.91036993  0.23561046    -0.27000
C824        C  0.95836369  0.91927610  0.20732560    -0.15000
C825        C  0.97715765  0.95498923  0.21013078     0.35600
C826        C  0.96583544  0.98193776  0.23820766    -0.26400
C827        C  0.93636111  0.97386731  0.26431536    -0.15700
C828        C  0.92051966  0.93677214  0.26367682     0.36700
N829        N  0.89151535  0.92630872  0.29059149    -0.89900
H830        H  0.91703312  0.88311147  0.23516630     0.17800
H831        H  0.97829627  0.01011059  0.23774094     0.17800
N832        N  0.00685118  0.96473383  0.18380978    -0.88900
H833        H  0.90066554  0.90212022  0.30517312     0.35200
H834        H  0.86709187  0.91907436  0.27566913     0.40300
H835        H  0.03132081  0.97049468  0.19926662     0.39900
H836        H  0.99900882  0.98966714  0.16971435     0.34800
C837        C  0.92538372  0.72446832  0.01279708    -0.27000
C838        C  0.90968632  0.75066358  0.03855730    -0.15000
C839        C  0.87008144  0.75612770  0.03995994     0.35600
C840        C  0.84677775  0.73451827  0.01658572    -0.26400
C841        C  0.86224199  0.70695041  0.99216779    -0.15700
C842        C  0.90196326  0.70238255  0.98977486     0.36700
N843        N  0.91861520  0.67548023  0.96401956    -0.89900
H844        H  0.95585614  0.72027657  0.01129629     0.17800
H845        H  0.81629809  0.73848736  0.01859893     0.17800
N846        N  0.85338170  0.78368546  0.06499576    -0.88900
H847        H  0.93478252  0.65626946  0.97970690     0.35200
H848        H  0.93697948  0.69020075  0.94565958     0.40300
H849        H  0.83415399  0.76960992  0.08297474     0.39900
H850        H  0.83818939  0.80318740  0.04869629     0.34800
C851        C  0.88244004  0.94059916  0.99867849    -0.27000
C852        C  0.85843269  0.96661880  0.01691871    -0.15000
C853        C  0.84331999  0.95753824  0.05319716     0.35600
C854        C  0.85684380  0.92547666  0.07267815    -0.26400
C855        C  0.88470194  0.90216376  0.05611284    -0.15700
C856        C  0.89507181  0.90793763  0.01770670     0.36700
N857        N  0.92158338  0.88250762  0.99959725    -0.89900
H858        H  0.89360080  0.94723971  0.97066291     0.17800
H859        H  0.84866171  0.92124350  0.10209597     0.17800
N860        N  0.81664920  0.98201499  0.07205568    -0.88900
H861        H  0.92673376  0.89099940  0.97158121     0.35200
H862        H  0.90876308  0.85572052  0.99834404     0.40300
H863        H  0.79285248  0.98475106  0.05487455     0.39900
H864        H  0.82891812  0.00886905  0.07518845     0.34800
C865        C  0.08950718  0.84567504  0.99324981    -0.27000
C866        C  0.04962596  0.84549012  0.99374783    -0.15000
C867        C  0.03025071  0.84993194  0.95924348     0.35600
C868        C  0.05090484  0.85913511  0.92589134    -0.26400
C869        C  0.09054671  0.86351404  0.92638871    -0.15700
C870        C  0.10999579  0.85510576  0.96023691     0.36700
N871        N  0.15047797  0.85840740  0.96241869    -0.89900
H872        H  0.10481498  0.84110095  0.01934259     0.17800
H873        H  0.03573196  0.86613734  0.90025642     0.17800
N874        N  0.98972732  0.84583486  0.95838245    -0.88900
H875        H  0.15829687  0.88648780  0.95644013     0.35200
H876        H  0.16259585  0.84079788  0.94171027     0.40300
H877        H  0.98333389  0.81771782  0.96569012     0.39900
H878        H  0.97980808  0.84995377  0.93082643     0.34800
C879        C  0.27289083  0.90875982  0.95961442    -0.27000
C880        C  0.26227421  0.92230425  0.99574622    -0.15000
C881        C  0.23271810  0.94919378  0.99826753     0.35600
C882        C  0.21291637  0.96033492  0.96552978    -0.26400
C883        C  0.22095268  0.94413726  0.92976277    -0.15700
C884        C  0.25252758  0.91919357  0.92669769     0.36700
N885        N  0.26291532  0.90332577  0.89051898    -0.89900
H886        H  0.29529023  0.88768469  0.95743532     0.17800
H887        H  0.18907830  0.97959804  0.96883581     0.17800
N888        N  0.22157536  0.96403969  0.03450353    -0.88900
H889        H  0.28634971  0.88528247  0.89310083     0.35200
H890        H  0.27153575  0.92583413  0.87299088     0.40300
H891        H  0.19298147  0.95734286  0.03919792     0.39900
H892        H  0.22400828  0.99367290  0.03337697     0.34800
C893        C  0.29162993  0.94145461  0.21588606    -0.27000
C894        C  0.31404148  0.94398138  0.18259764    -0.15000
C895        C  0.34024142  0.97421419  0.17956753     0.35600
C896        C  0.34542491  0.99925754  0.21049139    -0.26400
C897        C  0.32528985  0.99458897  0.24498717    -0.15700
C898        C  0.29679589  0.96618738  0.24683464     0.36700
N899        N  0.27400895  0.96029343  0.28043258    -0.89900
H900        H  0.27096525  0.91874476  0.21866397     0.17800
H901        H  0.36805450  0.02010207  0.20877174     0.17800
N902        N  0.36402502  0.97765506  0.14655048    -0.88900
H903        H  0.24561731  0.96430410  0.27296373     0.35200
H904        H  0.27971594  0.98086355  0.30087863     0.40300
H905        H  0.39228015  0.97536813  0.15501267     0.39900
H906        H  0.36014021  0.00488863  0.13524633     0.34800
C907        C  0.41608295  0.77276692  0.96701235    -0.27000
C908        C  0.39697250  0.74303311  0.94896487    -0.15000
C909        C  0.35728238  0.73963675  0.95371488     0.35600
C910        C  0.33788675  0.76490984  0.97782356    -0.26400
C911        C  0.35728827  0.79385297  0.99722465    -0.15700
C912        C  0.39661413  0.79867334  0.99046984     0.36700
N913        N  0.41662895  0.82990669  0.00726123    -0.89900
H914        H  0.44646642  0.77576316  0.96271959     0.17800
H915        H  0.30766688  0.76098116  0.98245687     0.17800
N916        N  0.33633070  0.70981440  0.93590882    -0.88900
H917        H  0.40551805  0.85501097  0.99593261     0.35200
H918        H  0.44537191  0.82925680  0.99947753     0.40300
H919        H  0.34778931  0.68370058  0.94419788     0.39900
H920        H  0.33962742  0.71255889  0.90653324     0.34800
C921        C  0.40921259  0.75316184  0.21330230    -0.27000
C922        C  0.40684607  0.77512283  0.24636314    -0.15000
C923        C  0.40008046  0.81452615  0.24352404     0.35600
C924        C  0.39245047  0.83080460  0.20805842    -0.26400
C925        C  0.38995673  0.80793439  0.17562920    -0.15700
C926        C  0.40015826  0.76913659  0.17790833     0.36700
N927        N  0.39811921  0.74562572  0.14470674    -0.89900
H928        H  0.41509070  0.72296974  0.21550481     0.17800
H929        H  0.38412204  0.86048536  0.20672991     0.17800
N930        N  0.39939221  0.83774492  0.27688704    -0.88900
H931        H  0.40571951  0.71751228  0.15117449     0.35200
H932        H  0.41827144  0.75567183  0.12526364     0.40300
H933        H  0.37267895  0.85049945  0.27915510     0.39900
H934        H  0.41960051  0.85934309  0.27333971     0.34800
C935        C  0.11232999  0.87763152  0.14823150    -0.27000
C936        C  0.09635147  0.84088431  0.14889258    -0.15000
C937        C  0.11950694  0.80906466  0.15641452     0.35600
C938        C  0.15869237  0.81388950  0.15530165    -0.26400
C939        C  0.17415035  0.84936980  0.14617240    -0.15700
C940        C  0.15139141  0.88200512  0.14526164     0.36700
N941        N  0.16685416  0.91894928  0.13751745    -0.89900
H942        H  0.09458705  0.90254437  0.14446495     0.17800
H943        H  0.17710172  0.78922668  0.15725355     0.17800
N944        N  0.10359442  0.77168203  0.16098142    -0.88900
H945        H  0.18083725  0.91819070  0.11118800     0.35200
H946        H  0.18686025  0.92503104  0.15826566     0.40300
H947        H  0.08682541  0.77228410  0.18554074     0.39900
H948        H  0.12492306  0.75152891  0.16560806     0.34800
C949        C  0.49395464  0.79051564  0.82853302    -0.27000
C950        C  0.50096286  0.75250084  0.81793318    -0.15000
C951        C  0.53295419  0.74536733  0.79429686     0.35600
C952        C  0.55821494  0.77525967  0.78431304    -0.26400
C953        C  0.55301645  0.81281302  0.79782590    -0.15700
C954        C  0.51898383  0.82057097  0.81844917     0.36700
N955        N  0.51051517  0.85872456  0.83054487    -0.89900
H956        H  0.46977588  0.79648904  0.84688143     0.17800
H957        H  0.58355932  0.76834299  0.76803165     0.17800
N958        N  0.54203504  0.70751159  0.78230101    -0.88900
H959        H  0.48497528  0.85957142  0.84591597     0.35200
H960        H  0.50642474  0.87515249  0.80616967     0.40300
H961        H  0.51891721  0.69688276  0.76730294     0.39900
H962        H  0.54576717  0.69056917  0.80633995     0.34800
C963        C  0.71051744  0.98957752  0.89691067    -0.27000
C964        C  0.71053189  0.99383753  0.85738716    -0.15000
C965        C  0.73159009  0.02370278  0.84061822     0.35600
C966        C  0.75368278  0.04744734  0.86323580    -0.26400
C967        C  0.75510671  0.04232154  0.90264037    -0.15700
C968        C  0.73281195  0.01335409  0.91964599     0.36700
N969        N  0.73386260  0.00690202  0.95971902    -0.89900
H970        H  0.69415561  0.96693137  0.91009982     0.17800
H971        H  0.77008198  0.06987509  0.84971827     0.17800
N972        N  0.73012480  0.03046442  0.80058725    -0.88900
H973        H  0.74313348  0.97901172  0.96434529     0.35200
H974        H  0.70619828  0.00931754  0.97050798     0.40300
H975        H  0.75777561  0.02881053  0.78957098     0.39900
H976        H  0.72014974  0.05814548  0.79627283     0.34800
C977        C  0.66485023  0.79645522  0.90013846    -0.27000
C978        C  0.68807092  0.82381307  0.88237286    -0.15000
C979        C  0.72738754  0.81655578  0.87922898     0.35600
C980        C  0.74215433  0.78096210  0.88959778    -0.26400
C981        C  0.71844548  0.75229279  0.90397294    -0.15700
C982        C  0.67969441  0.76097248  0.91126774     0.36700
N983        N  0.65417418  0.73332225  0.92704443    -0.89900
H984        H  0.63444599  0.80106477  0.90187137     0.17800
H985        H  0.77205958  0.77516056  0.88475652     0.17800
N986        N  0.75188314  0.84423586  0.86196778    -0.88900
H987        H  0.66359342  0.72590023  0.95404416     0.35200
H988        H  0.65484962  0.70911706  0.90986582     0.40300
H989        H  0.76439038  0.83166665  0.83804807     0.39900
H990        H  0.77340753  0.85056378  0.88105571     0.34800
C991        C  0.77795843  0.91038442  0.68982328    -0.27000
C992        C  0.77235597  0.89878954  0.72766607    -0.15000
C993        C  0.80431993  0.88749020  0.74854050     0.35600
C994        C  0.83925281  0.88088838  0.72950520    -0.26400
C995        C  0.84286773  0.88678356  0.69010912    -0.15700
C996        C  0.81290098  0.90472930  0.67115285     0.36700
N997        N  0.81658411  0.91301993  0.63150705    -0.89900
H998        H  0.75435019  0.92129801  0.67365040     0.17800
H999        H  0.86222941  0.86751090  0.74476113     0.17800
N1000       N  0.80149990  0.88320658  0.78882447    -0.88900
H1001       H  0.81112104  0.94200991  0.62766586     0.35200
H1002       H  0.79581665  0.89768533  0.61713236     0.40300
H1003       H  0.82041339  0.90241703  0.80103676     0.39900
H1004       H  0.81055360  0.85593378  0.79596444     0.34800
C1005       C  0.79127054  0.78206317  0.55221690    -0.27000
C1006       C  0.82515868  0.80350455  0.54949501    -0.15000
C1007       C  0.82825854  0.82991685  0.51904531     0.35600
C1008       C  0.79699352  0.83635581  0.49502848    -0.26400
C1009       C  0.76205111  0.81742143  0.50048062    -0.15700
C1010       C  0.75999808  0.78876338  0.52860569     0.36700
N1011       N  0.72587733  0.76721823  0.53542974    -0.89900
H1012       H  0.78787470  0.76104804  0.57450216     0.17800
H1013       H  0.79904686  0.85874495  0.47392456     0.17800
N1014       N  0.86218203  0.85141159  0.51223111    -0.88900
H1015       H  0.73248097  0.73855387  0.53114217     0.35200
H1016       H  0.70504937  0.77385369  0.51561956     0.40300
H1017       H  0.88490843  0.83243604  0.50924035     0.39900
H1018       H  0.86693350  0.86907709  0.53545663     0.34800
C1019       C  0.58345166  0.75359217  0.42919666    -0.27000
C1020       C  0.57694862  0.78448346  0.45364489    -0.15000
C1021       C  0.54293056  0.78466421  0.47539129     0.35600
C1022       C  0.51418612  0.75766318  0.46838240    -0.26400
C1023       C  0.51852897  0.72993657  0.43999986    -0.15700
C1024       C  0.55451009  0.72669279  0.42206399     0.36700
N1025       N  0.56025238  0.69881624  0.39308837    -0.89900
H1026       H  0.60959282  0.75232470  0.41272833     0.17800
H1027       H  0.48680806  0.76103764  0.48234430     0.17800
N1028       N  0.53676821  0.81331120  0.50362705    -0.88900
H1029       H  0.58354380  0.68207658  0.40060065     0.35200
H1030       H  0.56739841  0.71337145  0.36818739     0.40300
H1031       H  0.53194259  0.79965128  0.52960011     0.39900
H1032       H  0.51220167  0.82839387  0.49672849     0.34800
C1033       C  0.73960577  0.95464839  0.36191009    -0.27000
C1034       C  0.75137948  0.94330963  0.39808590    -0.15000
C1035       C  0.78566823  0.95807710  0.41219754     0.35600
C1036       C  0.80698950  0.98397352  0.39025396    -0.26400
C1037       C  0.79499639  0.99571976  0.35413878    -0.15700
C1038       C  0.76065035  0.98032176  0.33994308     0.36700
N1039       N  0.74613567  0.98962239  0.30329760    -0.89900
H1040       H  0.71332908  0.94382080  0.35045845     0.17800
H1041       H  0.83327192  0.99477122  0.40168578     0.17800
N1042       N  0.79925136  0.94675584  0.44862653    -0.88900
H1043       H  0.76592338  0.98153591  0.28251469     0.35200
H1044       H  0.74101854  0.01890059  0.30189072     0.40300
H1045       H  0.80219322  0.97116276  0.46520869     0.39900
H1046       H  0.82614186  0.93455667  0.44491922     0.34800
C1047       C  0.55406004  0.91091815  0.35316146    -0.27000
C1048       C  0.58632847  0.92976638  0.36646976    -0.15000
C1049       C  0.58794617  0.97001785  0.36309679     0.35600
C1050       C  0.55504528  0.99065197  0.35453886    -0.26400
C1051       C  0.52110575  0.97170971  0.34695934    -0.15700
C1052       C  0.52155824  0.93172791  0.34257112     0.36700
N1053       N  0.48805569  0.91234254  0.33008627    -0.89900
H1054       H  0.55260776  0.88016657  0.35499151     0.17800
H1055       H  0.55550180  0.02145503  0.35585951     0.17800
N1056       N  0.62223675  0.99064089  0.37025780    -0.88900
H1057       H  0.49272942  0.88294991  0.32903069     0.35200
H1058       H  0.48291163  0.92111219  0.30230621     0.40300
H1059       H  0.64346863  0.98004734  0.35219955     0.39900
H1060       H  0.63064067  0.98623905  0.39820580     0.34800
C1061       C  0.61812976  0.85474382  0.61027028    -0.27000
C1062       C  0.61369057  0.88771509  0.58892995    -0.15000
C1063       C  0.60323456  0.92207435  0.60642406     0.35600
C1064       C  0.60539170  0.92500200  0.64571101    -0.26400
C1065       C  0.61713834  0.89351957  0.66694524    -0.15700
C1066       C  0.61900904  0.85722695  0.64964101     0.36700
N1067       N  0.62419627  0.82334150  0.67165393    -0.89900
H1068       H  0.62420276  0.82783919  0.59646555     0.17800
H1069       H  0.60139210  0.95256316  0.65891250     0.17800
N1070       N  0.59225583  0.95428973  0.58417813    -0.88900
H1071       H  0.64933393  0.81015839  0.66257589     0.35200
H1072       H  0.60165855  0.80492949  0.66606553     0.40300
H1073       H  0.60962141  0.97719074  0.59136200     0.39900
H1074       H  0.56452886  0.96157102  0.59207427     0.34800
C1075       C  0.50517076  0.27293175  0.04751097    -0.27000
C1076       C  0.49925167  0.24201997  0.07218344    -0.15000
C1077       C  0.46198241  0.23624314  0.08657934     0.35600
C1078       C  0.43214403  0.26168536  0.07713556    -0.26400
C1079       C  0.43884347  0.29414476  0.05451864    -0.15700
C1080       C  0.47581286  0.29878942  0.03876239     0.36700
N1081       N  0.48426237  0.33071324  0.01480336    -0.89900
H1082       H  0.53365780  0.27876123  0.03707506     0.17800
H1083       H  0.40435476  0.25756059  0.08998755     0.17800
N1084       N  0.45498680  0.20655581  0.11358553    -0.88900
H1085       H  0.49443631  0.32041567  0.98881405     0.35200
H1086       H  0.50596583  0.34640968  0.02733218     0.40300
H1087       H  0.43344237  0.18918505  0.10311645     0.39900
H1088       H  0.44496674  0.21910023  0.13861465     0.34800
C1089       C  0.75374068  0.19413725  0.03245308    -0.27000
C1090       C  0.75045544  0.16689315  0.00357653    -0.15000
C1091       C  0.71440084  0.15007818  0.99818194     0.35600
C1092       C  0.68356000  0.15852836  0.02307561    -0.26400
C1093       C  0.68790520  0.18347108  0.05390654    -0.15700
C1094       C  0.72294841  0.20289080  0.05701870     0.36700
N1095       N  0.72772055  0.23107744  0.08584443    -0.89900
H1096       H  0.78113103  0.20707081  0.03752779     0.17800
H1097       H  0.65699665  0.14343500  0.01979895     0.17800
N1098       N  0.70974181  0.12208485  0.96918439    -0.88900
H1099       H  0.73499394  0.25674132  0.07258744     0.35200
H1100       H  0.75038241  0.22281469  0.10286126     0.40300
H1101       H  0.68792319  0.13117469  0.95146013     0.39900
H1102       H  0.70114322  0.09666228  0.98206387     0.34800
C1103       C  0.49909324  0.09869464  0.19752696    -0.27000
C1104       C  0.49585150  0.13860311  0.19593986    -0.15000
C1105       C  0.46688584  0.15628313  0.21777853     0.35600
C1106       C  0.44327265  0.13420314  0.24157516    -0.26400
C1107       C  0.44771992  0.09452335  0.24429626    -0.15700
C1108       C  0.47563536  0.07670406  0.22142937     0.36700
N1109       N  0.48165977  0.03644291  0.22363957    -0.89900
H1110       H  0.52087714  0.08429714  0.18100354     0.17800
H1111       H  0.42184150  0.14844172  0.25870264     0.17800
N1112       N  0.46197681  0.19673440  0.21703592    -0.88900
H1113       H  0.50965948  0.03168209  0.23196316     0.35200
H1114       H  0.47837742  0.02504265  0.19652537     0.40300
H1115       H  0.46540196  0.20700643  0.24457334     0.39900
H1116       H  0.43411537  0.20252303  0.20887346     0.34800
C1117       C  0.68333185  0.11342002  0.23056281    -0.27000
C1118       C  0.67720831  0.11089720  0.19114673    -0.15000
C1119       C  0.70716001  0.09753506  0.16775862     0.35600
C1120       C  0.74317471  0.09052020  0.18376935    -0.26400
C1121       C  0.75011451  0.09796281  0.22233975    -0.15700
C1122       C  0.71948352  0.10824659  0.24601291     0.36700
N1123       N  0.72512913  0.11435800  0.28569186    -0.89900
H1124       H  0.66067077  0.12339015  0.24912530     0.17800
H1125       H  0.76653271  0.08157087  0.16559422     0.17800
N1126       N  0.70191601  0.09427862  0.12757807    -0.88900
H1127       H  0.70712398  0.09596290  0.30074830     0.35200
H1128       H  0.71706106  0.14228932  0.29206695     0.40300
H1129       H  0.68188871  0.07288130  0.12320156     0.39900
H1130       H  0.72706681  0.08533454  0.11421690     0.34800
C1131       C  0.62582425  0.23697574  0.29847332    -0.27000
C1132       C  0.60196233  0.25473148  0.27257667    -0.15000
C1133       C  0.58898567  0.29220226  0.28018789     0.35600
C1134       C  0.60511938  0.31312216  0.30995763    -0.26400
C1135       C  0.63310298  0.29665605  0.33277179    -0.15700
C1136       C  0.64076048  0.25726952  0.32890877     0.36700
N1137       N  0.66622511  0.23848642  0.35425561    -0.89900
H1138       H  0.63535220  0.20806217  0.29337067     0.17800
H1139       H  0.59829970  0.34304431  0.31295995     0.17800
N1140       N  0.56135143  0.31037239  0.25679455    -0.88900
H1141       H  0.68900360  0.22760663  0.33835334     0.35200
H1142       H  0.65180778  0.21556222  0.36669644     0.40300
H1143       H  0.53668891  0.29382641  0.25753291     0.39900
H1144       H  0.57137172  0.31113477  0.22887003     0.34800
C1145       C  0.68195295  0.48786059  0.33073261    -0.27000
C1146       C  0.70122260  0.45440073  0.32017568    -0.15000
C1147       C  0.71616869  0.45249240  0.28256512     0.35600
C1148       C  0.70783266  0.48118355  0.25566783    -0.26400
C1149       C  0.68474873  0.51236549  0.26511707    -0.15700
C1150       C  0.67356998  0.51661357  0.30375285     0.36700
N1151       N  0.65094684  0.54892555  0.31473475    -0.89900
H1152       H  0.67113585  0.49052557  0.35947955     0.17800
H1153       H  0.71634364  0.47695259  0.22634890     0.17800
N1154       N  0.73882736  0.42062625  0.27092851    -0.88900
H1155       H  0.66752582  0.57324790  0.31044798     0.35200
H1156       H  0.64433451  0.54785781  0.34369933     0.40300
H1157       H  0.76510542  0.43089427  0.26139448     0.39900
H1158       H  0.72553614  0.40747113  0.24807815     0.34800
C1159       C  0.73995977  0.53875905  0.01093544    -0.27000
C1160       C  0.77038678  0.56236072  0.02106403    -0.15000
C1161       C  0.77388369  0.57243591  0.05983604     0.35600
C1162       C  0.74615128  0.56075918  0.08677349    -0.26400
C1163       C  0.71454033  0.53905551  0.07630428    -0.15700
C1164       C  0.71200955  0.52748825  0.03778629     0.36700
N1165       N  0.67965049  0.50716264  0.02431236    -0.89900
H1166       H  0.73573579  0.53210086  0.98129883     0.17800
H1167       H  0.74839396  0.57006022  0.11592801     0.17800
N1168       N  0.80451801  0.59671371  0.07126898    -0.88900
H1169       H  0.65527568  0.52308884  0.03042424     0.35200
H1170       H  0.67788391  0.48114695  0.03863883     0.40300
H1171       H  0.82982564  0.58191890  0.06654537     0.39900
H1172       H  0.80284284  0.60226996  0.10040891     0.34800
C1173       C  0.55657702  0.62801367  0.26033488    -0.27000
C1174       C  0.54081866  0.59426915  0.24606793    -0.15000
C1175       C  0.50461461  0.58289708  0.25947451     0.35600
C1176       C  0.48555004  0.60484444  0.28701989    -0.26400
C1177       C  0.50155341  0.63844942  0.30147661    -0.15700
C1178       C  0.53746349  0.65004723  0.28756938     0.36700
N1179       N  0.55514185  0.68393190  0.30118603    -0.89900
H1180       H  0.58439999  0.63737428  0.25078314     0.17800
H1181       H  0.45766312  0.59571645  0.29663149     0.17800
N1182       N  0.48684503  0.54928575  0.24520867    -0.88900
H1183       H  0.55994113  0.70205553  0.27807712     0.35200
H1184       H  0.58154186  0.67641496  0.31218842     0.40300
H1185       H  0.46088337  0.55712819  0.23341274     0.39900
H1186       H  0.48124285  0.53108295  0.26806525     0.34800
C1187       C  0.53299140  0.56075916  0.05274290    -0.27000
C1188       C  0.55380365  0.58834822  0.07296614    -0.15000
C1189       C  0.54820457  0.62692471  0.06378699     0.35600
C1190       C  0.52474818  0.63663633  0.03316008    -0.26400
C1191       C  0.50651944  0.60864727  0.01083656    -0.15700
C1192       C  0.50932852  0.57047061  0.02236195     0.36700
N1193       N  0.49005663  0.54111978  0.00210744    -0.89900
H1194       H  0.53640257  0.53087355  0.05942915     0.17800
H1195       H  0.52272895  0.66639077  0.02533086     0.17800
N1196       N  0.56785741  0.65657445  0.08318851    -0.88900
H1197       H  0.47239792  0.52662857  0.02131047     0.35200
H1198       H  0.51035869  0.52189121  0.99183252     0.40300
H1199       H  0.59704093  0.65162185  0.08051264     0.39900
H1200       H  0.56033348  0.65521367  0.11191337     0.34800
C1201       C  0.66469041  0.38500430  0.13597079    -0.27000
C1202       C  0.65206857  0.40049162  0.17075462    -0.15000
C1203       C  0.64522489  0.37624586  0.20199171     0.35600
C1204       C  0.64452752  0.33738133  0.19579506    -0.26400
C1205       C  0.64777938  0.32309340  0.15891647    -0.15700
C1206       C  0.66160788  0.34599702  0.12951994     0.36700
N1207       N  0.66887995  0.33045691  0.09263756    -0.89900
H1208       H  0.67163272  0.40353305  0.11227147     0.17800
H1209       H  0.63677129  0.31867853  0.21901563     0.17800
N1210       N  0.63399177  0.38991227  0.23870475    -0.88900
H1211       H  0.69707164  0.33651916  0.08522794     0.35200
H1212       H  0.65136219  0.34438616  0.07332925     0.40300
H1213       H  0.60812798  0.40438548  0.23651888     0.39900
H1214       H  0.65470032  0.40859028  0.24835870     0.34800
C1215       C  0.43313518  0.46993883  0.12720816    -0.27000
C1216       C  0.42741713  0.43039348  0.12567747    -0.15000
C1217       C  0.45650560  0.40569502  0.13776843     0.35600
C1218       C  0.49216120  0.42098737  0.14668845    -0.26400
C1219       C  0.49901512  0.46018264  0.14338215    -0.15700
C1220       C  0.46863294  0.48501669  0.13569685     0.36700
N1221       N  0.47310568  0.52552738  0.13598352    -0.89900
H1222       H  0.41077651  0.48914779  0.11843430     0.17800
H1223       H  0.51531829  0.40209710  0.15394641     0.17800
N1224       N  0.45095546  0.36517161  0.13745225    -0.88900
H1225       H  0.49317104  0.53313569  0.11538047     0.35200
H1226       H  0.48334268  0.53353100  0.16249175     0.40300
H1227       H  0.43031090  0.35880621  0.15811113     0.39900
H1228       H  0.47568320  0.35105660  0.14547644     0.34800
C1229       C  0.48286540  0.24915622  0.69920432    -0.27000
C1230       C  0.51597682  0.25966817  0.67925771    -0.15000
C1231       C  0.52042191  0.29855463  0.66923422     0.35600
C1232       C  0.49080267  0.32503524  0.67635588    -0.26400
C1233       C  0.45603916  0.31376947  0.69289552    -0.15700
C1234       C  0.45311521  0.27556272  0.70602993     0.36700
N1235       N  0.41946270  0.26290637  0.72543400    -0.89900
H1236       H  0.47846505  0.21952215  0.70658165     0.17800
H1237       H  0.49417423  0.35418445  0.66688502     0.17800
N1238       N  0.55424470  0.31043321  0.64929381    -0.88900
H1239       H  0.42727245  0.25270158  0.75207619     0.35200
H1240       H  0.40803080  0.24020749  0.71022988     0.40300
H1241       H  0.57711004  0.30635340  0.66744976     0.39900
H1242       H  0.55319889  0.33956045  0.64321431     0.34800
C1243       C  0.55267011  0.99993254  0.73077298    -0.27000
C1244       C  0.57461073  0.00927510  0.76241070    -0.15000
C1245       C  0.58402125  0.04809802  0.76778377     0.35600
C1246       C  0.57381283  0.07597147  0.74081072    -0.26400
C1247       C  0.55395894  0.06637847  0.70789406    -0.15700
C1248       C  0.54245142  0.02786271  0.70362808     0.36700
N1249       N  0.52283087  0.01625372  0.67027662    -0.89900
H1250       H  0.54628225  0.97031764  0.72520069     0.17800
H1251       H  0.58280459  0.10512400  0.74502105     0.17800
N1252       N  0.60579396  0.05909116  0.80000001    -0.88900
H1253       H  0.49735701  0.00351946  0.67872097     0.35200
H1254       H  0.53938641  0.99566097  0.65634598     0.40300
H1255       H  0.59026924  0.07952212  0.81512773     0.39900
H1256       H  0.63089165  0.07183448  0.79020543     0.34800
C1257       C  0.64886453  0.24216095  0.54440666    -0.27000
C1258       C  0.60978911  0.23876846  0.53773058    -0.15000
C1259       C  0.59336161  0.26101245  0.50865095     0.35600
C1260       C  0.61614502  0.28641419  0.48780715    -0.26400
C1261       C  0.65522868  0.28986929  0.49437553    -0.15700
C1262       C  0.67172575  0.26703592  0.52284779     0.36700
N1263       N  0.71165004  0.26862510  0.52993577    -0.89900
H1264       H  0.66190496  0.22522500  0.56641229     0.17800
H1265       H  0.60307880  0.30341309  0.46588896     0.17800
N1266       N  0.55343315  0.25868101  0.50081946    -0.88900
H1267       H  0.72292027  0.24133098  0.52597522     0.35200
H1268       H  0.71538781  0.27618211  0.55826738     0.40300
H1269       H  0.54870085  0.23252918  0.48761821     0.39900
H1270       H  0.54548462  0.27947143  0.48120225     0.34800
C1271       C  0.62129378  0.03860219  0.49869714    -0.27000
C1272       C  0.64517023  0.01139278  0.51475807    -0.15000
C1273       C  0.66199653  0.01876703  0.55009132     0.35600
C1274       C  0.65076372  0.05095276  0.57110808    -0.26400
C1275       C  0.62386621  0.07627081  0.55656984    -0.15700
C1276       C  0.61117730  0.07152178  0.51899893     0.36700
N1277       N  0.58541110  0.09872953  0.50297553    -0.89900
H1278       H  0.60894744  0.03315932  0.47124224     0.17800
H1279       H  0.66035463  0.05417116  0.59999318     0.17800
N1280       N  0.68795090  0.99189528  0.56605597    -0.88900
H1281       H  0.57823136  0.09095007  0.47541340     0.35200
H1282       H  0.59977882  0.12472303  0.50086444     0.40300
H1283       H  0.67689767  0.98254697  0.59211536     0.39900
H1284       H  0.71339024  0.00607138  0.57129910     0.34800
C1285       C  0.49391131  0.14016871  0.46157929    -0.27000
C1286       C  0.47205153  0.13692311  0.49485867    -0.15000
C1287       C  0.43258456  0.13051162  0.49229384     0.35600
C1288       C  0.41625496  0.12473063  0.45678393    -0.26400
C1289       C  0.43868682  0.12445948  0.42361466    -0.15700
C1290       C  0.47759159  0.13445727  0.42591534     0.36700
N1291       N  0.50159869  0.13703434  0.39274010    -0.89900
H1292       H  0.52393759  0.14658509  0.46332753     0.17800
H1293       H  0.38668460  0.11629093  0.45562052     0.17800
N1294       N  0.40894853  0.12710023  0.52549896    -0.88900
H1295       H  0.51234051  0.16470099  0.39156080     0.35200
H1296       H  0.48576952  0.13363777  0.36806836     0.40300
H1297       H  0.41982731  0.10539105  0.54255281     0.39900
H1298       H  0.41004979  0.15262450  0.54058207     0.34800
C1299       C  0.24517760  0.07703183  0.45922463    -0.27000
C1300       C  0.25288996  0.06373799  0.49599159    -0.15000
C1301       C  0.28441048  0.03964233  0.50082588     0.35600
C1302       C  0.30962607  0.03246696  0.47028407    -0.26400
C1303       C  0.30413764  0.04877765  0.43420731    -0.15700
C1304       C  0.27014610  0.06947990  0.42821787     0.36700
N1305       N  0.26245804  0.08528717  0.39152703    -0.89900
H1306       H  0.22138632  0.09615733  0.45531790     0.17800
H1307       H  0.33474430  0.01548101  0.47540556     0.17800
N1308       N  0.29200559  0.02405437  0.53749918    -0.88900
H1309       H  0.23743219  0.10135552  0.39235536     0.35200
H1310       H  0.25738385  0.06257391  0.37322221     0.40300
H1311       H  0.31894757  0.03310143  0.54567502     0.39900
H1312       H  0.29261926  0.99440210  0.53504024     0.34800
C1313       C  0.20716404  0.02049253  0.74853550    -0.27000
C1314       C  0.19406031  0.98450933  0.73746096    -0.15000
C1315       C  0.18892978  0.97800075  0.69804395     0.35600
C1316       C  0.19404731  0.00797073  0.67167292    -0.26400
C1317       C  0.20389267  0.04498774  0.68314120    -0.15700
C1318       C  0.21173661  0.05059179  0.72215989     0.36700
N1319       N  0.22289884  0.08725879  0.73570746    -0.89900
H1320       H  0.21042707  0.02648989  0.77844915     0.17800
H1321       H  0.18841029  0.00249767  0.64205872     0.17800
N1322       N  0.17649136  0.94176951  0.68393793    -0.88900
H1323       H  0.24910484  0.08436343  0.74903215     0.35200
H1324       H  0.20294760  0.09609516  0.75605241     0.40300
H1325       H  0.17503961  0.92152690  0.70567002     0.39900
H1326       H  0.19729421  0.93196207  0.66499850     0.34800
C1327       C  0.08447224  0.21513805  0.47789985    -0.27000
C1328       C  0.10290743  0.23609597  0.44926874    -0.15000
C1329       C  0.14218146  0.23025303  0.44271850     0.35600
C1330       C  0.16247747  0.20567961  0.46663117    -0.26400
C1331       C  0.14450735  0.18648260  0.49693702    -0.15700
C1332       C  0.10476244  0.19068724  0.50179253     0.36700
N1333       N  0.08477918  0.17096389  0.53146516    -0.89900
H1334       H  0.05429346  0.21895669  0.48295255     0.17800
H1335       H  0.19276057  0.20234465  0.46205129     0.17800
N1336       N  0.16137358  0.24949106  0.41199790    -0.88900
H1337       H  0.06364420  0.15434772  0.51912669     0.35200
H1338       H  0.07154433  0.19116641  0.54888010     0.40300
H1339       H  0.14998366  0.23954253  0.38682792     0.39900
H1340       H  0.19037378  0.24237419  0.41131186     0.34800
C1341       C  0.14245425  0.16758172  0.71364854    -0.27000
C1342       C  0.12631859  0.17832045  0.67906742    -0.15000
C1343       C  0.10491619  0.21236242  0.67757499     0.35600
C1344       C  0.10111541  0.23518546  0.71008658    -0.26400
C1345       C  0.12065885  0.22602128  0.74333399    -0.15700
C1346       C  0.14104512  0.19171903  0.74511693     0.36700
N1347       N  0.16113648  0.18168823  0.77876002    -0.89900
H1348       H  0.15989289  0.14226347  0.71517773     0.17800
H1349       H  0.08362575  0.26054952  0.70916126     0.17800
N1350       N  0.08782472  0.22480255  0.64306617    -0.88900
H1351       H  0.18990335  0.17924398  0.77166352     0.35200
H1352       H  0.15176070  0.15488308  0.78767766     0.40300
H1353       H  0.06978343  0.20322429  0.63377105     0.39900
H1354       H  0.10916003  0.22867056  0.62256504     0.34800
C1355       C  0.35415356  0.18881475  0.62966566    -0.27000
C1356       C  0.33735892  0.15321972  0.63518773    -0.15000
C1357       C  0.35807306  0.12290445  0.65054136     0.35600
C1358       C  0.39739711  0.12698521  0.65344895    -0.26400
C1359       C  0.41507527  0.16085612  0.64152917    -0.15700
C1360       C  0.39308651  0.19298968  0.63248924     0.36700
N1361       N  0.41025699  0.22849879  0.62186514    -0.89900
H1362       H  0.33734900  0.21273629  0.62016812     0.17800
H1363       H  0.41454008  0.10271094  0.66148196     0.17800
N1364       N  0.33980628  0.08746543  0.65977484    -0.88900
H1365       H  0.39892936  0.24980690  0.63932303     0.35200
H1366       H  0.40268614  0.23469497  0.59397087     0.40300
H1367       H  0.32130757  0.09253637  0.68263794     0.39900
H1368       H  0.35971250  0.06767252  0.66929996     0.34800
C1369       C  0.24107732  0.29534235  0.61892785    -0.27000
C1370       C  0.25962978  0.26847306  0.59623354    -0.15000
C1371       C  0.29683790  0.27586498  0.58281837     0.35600
C1372       C  0.31719620  0.30679963  0.59783797    -0.26400
C1373       C  0.30014314  0.33066854  0.62493107    -0.15700
C1374       C  0.26065836  0.32718966  0.63240188     0.36700
N1375       N  0.24156439  0.35423287  0.65657254    -0.89900
H1376       H  0.21222578  0.28992858  0.62853297     0.17800
H1377       H  0.34719960  0.30980886  0.59137628     0.17800
N1378       N  0.31494927  0.24973209  0.55704990    -0.88900
H1379       H  0.21286059  0.34725880  0.65982541     0.35200
H1380       H  0.24259449  0.38065308  0.64290541     0.40300
H1381       H  0.34258323  0.25860213  0.55071258     0.39900
H1382       H  0.29997674  0.25069180  0.53160270     0.34800
C1383       C  0.07672959  0.41263479  0.27129153    -0.27000
C1384       C  0.05769879  0.42346348  0.30476516    -0.15000
C1385       C  0.04122015  0.46034859  0.30605806     0.35600
C1386       C  0.04906181  0.48701914  0.27662220    -0.26400
C1387       C  0.07284257  0.47761325  0.24575711    -0.15700
C1388       C  0.08441463  0.43896962  0.24214750     0.36700
N1389       N  0.10549963  0.42589903  0.20964963    -0.89900
H1390       H  0.08804700  0.38406625  0.26867338     0.17800
H1391       H  0.03928605  0.51611142  0.27945578     0.17800
N1392       N  0.01738697  0.47094129  0.33766823    -0.88900
H1393       H  0.13187702  0.43940432  0.20830028     0.35200
H1394       H  0.09029726  0.43292330  0.18537619     0.40300
H1395       H  0.99346218  0.45335130  0.33727255     0.39900
H1396       H  0.00746258  0.49878481  0.33438092     0.34800
C1397       C  0.02123399  0.73214425  0.21213966    -0.27000
C1398       C  0.99472022  0.72437966  0.18376795    -0.15000
C1399       C  0.99184583  0.68649474  0.17038314     0.35600
C1400       C  0.01847190  0.65883233  0.18155575    -0.26400
C1401       C  0.04784345  0.66757947  0.20661161    -0.15700
C1402       C  0.04759032  0.70409213  0.22382006     0.36700
N1403       N  0.07534081  0.71361813  0.25158417    -0.89900
H1404       H  0.02386018  0.76090253  0.22280977     0.17800
H1405       H  0.01734539  0.63072881  0.16904740     0.17800
N1406       N  0.96328512  0.67697646  0.14320102    -0.88900
H1407       H  0.06096762  0.72196654  0.27634026     0.35200
H1408       H  0.09111356  0.73680781  0.24172128     0.40300
H1409       H  0.93681149  0.68057087  0.15648428     0.39900
H1410       H  0.96520180  0.64832278  0.13553773     0.34800
C1411       C  0.19905294  0.48148889  0.11536321    -0.27000
C1412       C  0.21282428  0.49242188  0.15103881    -0.15000
C1413       C  0.24851915  0.47859894  0.16254766     0.35600
C1414       C  0.26909625  0.45405839  0.13887281    -0.26400
C1415       C  0.25532361  0.44285021  0.10336523    -0.15700
C1416       C  0.21998084  0.45715691  0.09142698     0.36700
N1417       N  0.20500297  0.44709691  0.05525346    -0.89900
H1418       H  0.17183043  0.49187327  0.10577570     0.17800
H1419       H  0.29650944  0.44414182  0.14843474     0.17800
N1420       N  0.26424791  0.48918836  0.19827477    -0.88900
H1421       H  0.20098226  0.47213368  0.03977072     0.35200
H1422       H  0.17838564  0.43458807  0.05972077     0.40300
H1423       H  0.29042976  0.50239377  0.19312064     0.39900
H1424       H  0.26912677  0.46439653  0.21387761     0.34800
C1425       C  0.23227289  0.65801783  0.12937525    -0.27000
C1426       C  0.19242771  0.65878893  0.12601026    -0.15000
C1427       C  0.17536471  0.69170969  0.11043757     0.35600
C1428       C  0.19778561  0.72376131  0.10192222    -0.26400
C1429       C  0.23695502  0.72414187  0.10872476    -0.15700
C1430       C  0.25454296  0.69041380  0.12134561     0.36700
N1431       N  0.29453681  0.68896825  0.12808066    -0.89900
H1432       H  0.24570907  0.63346198  0.14212439     0.17800
H1433       H  0.18399337  0.74950792  0.09215365     0.17800
N1434       N  0.13493776  0.69472705  0.10600478    -0.88900
H1435       H  0.30114672  0.70959796  0.14827226     0.35200
H1436       H  0.30872540  0.69591480  0.10280087     0.40300
H1437       H  0.12146508  0.66898870  0.11246056     0.39900
H1438       H  0.12983315  0.69982839  0.07733403     0.34800
C1439       C  0.32945222  0.63335232  0.27098734    -0.27000
C1440       C  0.33457551  0.62653693  0.30995105    -0.15000
C1441       C  0.30814644  0.60371615  0.32956970     0.35600
C1442       C  0.27488461  0.59230605  0.31130368    -0.26400
C1443       C  0.26719268  0.60403173  0.27390326    -0.15700
C1444       C  0.29598068  0.62285984  0.25293943     0.36700
N1445       N  0.29191910  0.63241822  0.21370562    -0.89900
H1446       H  0.35016264  0.65007654  0.25522650     0.17800
H1447       H  0.25375590  0.57663361  0.32755045     0.17800
N1448       N  0.31333421  0.59476345  0.36878780    -0.88900
H1449       H  0.27002577  0.65228501  0.21093415     0.35200
H1450       H  0.28502991  0.60773893  0.19883812     0.40300
H1451       H  0.31300655  0.56513009  0.37166668     0.39900
H1452       H  0.29027112  0.60573047  0.38416545     0.34800
C1453       C  0.28821489  0.70975829  0.45319303    -0.27000
C1454       C  0.32394735  0.69288642  0.45960620    -0.15000
C1455       C  0.32884241  0.67310617  0.49411863     0.35600
C1456       C  0.29741231  0.66717372  0.51904414    -0.26400
C1457       C  0.26078986  0.68056352  0.51025313    -0.15700
C1458       C  0.25699454  0.70409480  0.47785280     0.36700
N1459       N  0.22104568  0.72038336  0.46758943    -0.89900
H1460       H  0.28376020  0.72618687  0.42760118     0.17800
H1461       H  0.30092080  0.64863647  0.54333734     0.17800
N1462       N  0.36486392  0.65663524  0.50281043    -0.88900
H1463       H  0.22449669  0.74993025  0.46656661     0.35200
H1464       H  0.20044880  0.71535437  0.48853772     0.40300
H1465       H  0.36117555  0.62728689  0.50593766     0.39900
H1466       H  0.37351237  0.66757216  0.52886712     0.34800
C1467       C  0.03550460  0.69237119  0.54558522    -0.27000
C1468       C  0.07225671  0.69882296  0.55985144    -0.15000
C1469       C  0.07913854  0.73429672  0.57755335     0.35600
C1470       C  0.04904292  0.76014944  0.58345915    -0.26400
C1471       C  0.01152062  0.75178803  0.57274174    -0.15700
C1472       C  0.00530526  0.71812082  0.55175134     0.36700
N1473       N  0.96815212  0.70748732  0.53910492    -0.89900
H1474       H  0.02946813  0.66593848  0.53108650     0.17800
H1475       H  0.05429279  0.78535458  0.60028999     0.17800
N1476       N  0.11550001  0.74384525  0.59252552    -0.88900
H1477       H  0.96956562  0.70490231  0.50958757     0.35200
H1478       H  0.94838451  0.72894433  0.54466416     0.40300
H1479       H  0.13545040  0.74371774  0.57033515     0.39900
H1480       H  0.12298346  0.72332140  0.61256717     0.34800
C1481       C  0.27903913  0.52214201  0.66757041    -0.27000
C1482       C  0.30318343  0.49722364  0.64754723    -0.15000
C1483       C  0.30345595  0.49847298  0.60751100     0.35600
C1484       C  0.27988025  0.52425718  0.58855256    -0.26400
C1485       C  0.25536934  0.54882369  0.60855464    -0.15700
C1486       C  0.25512295  0.54760653  0.64860566     0.36700
N1487       N  0.23074367  0.57213026  0.67033026    -0.89900
H1488       H  0.27812769  0.52152392  0.69828199     0.17800
H1489       H  0.28029075  0.52437974  0.55783229     0.17800
N1490       N  0.32766067  0.47378156  0.58579117    -0.88900
H1491       H  0.24765371  0.58849373  0.68818386     0.35200
H1492       H  0.21305345  0.55513215  0.68730550     0.40300
H1493       H  0.34540239  0.49063227  0.56874836     0.39900
H1494       H  0.31060477  0.45746640  0.56801088     0.34800
C1495       C  0.03962703  0.50103768  0.64091710    -0.27000
C1496       C  0.00850385  0.52466288  0.64864408    -0.15000
C1497       C  0.01453387  0.56416150  0.65330500     0.35600
C1498       C  0.05067128  0.57970011  0.64609917    -0.26400
C1499       C  0.08082968  0.55644148  0.63411497    -0.15700
C1500       C  0.07590687  0.51632118  0.63469859     0.36700
N1501       N  0.10663865  0.49057400  0.62629386    -0.89900
H1502       H  0.03562986  0.47052204  0.63894992     0.17800
H1503       H  0.05387885  0.61037856  0.64561097     0.17800
N1504       N  0.98344387  0.58900146  0.66235980    -0.88900
H1505       H  0.10936009  0.47229603  0.64954346     0.35200
H1506       H  0.13238943  0.50518852  0.62428421     0.40300
H1507       H  0.98077433  0.60880398  0.64038085     0.39900
H1508       H  0.99014003  0.60382062  0.68705435     0.34800
C1509       C  0.12410296  0.63431068  0.35805543    -0.27000
C1510       C  0.11808039  0.59769759  0.34289482    -0.15000
C1511       C  0.10513525  0.56814403  0.36664489     0.35600
C1512       C  0.10675926  0.57339913  0.40566876    -0.26400
C1513       C  0.12020098  0.60768929  0.42029716    -0.15700
C1514       C  0.12626972  0.63934775  0.39708701     0.36700
N1515       N  0.13724455  0.67530952  0.41298841    -0.89900
H1516       H  0.13146707  0.65798465  0.33967194     0.17800
H1517       H  0.10067486  0.54976507  0.42460039     0.17800
N1518       N  0.09275851  0.53253180  0.35131152    -0.88900
H1519       H  0.14053548  0.69574373  0.39164262     0.35200
H1520       H  0.16392562  0.67184804  0.42524509     0.40300
H1521       H  0.06832583  0.53838067  0.33590596     0.39900
H1522       H  0.08439628  0.51398596  0.37306738     0.34800
C1523       C  0.15798720  0.47761088  0.44625694    -0.27000
C1524       C  0.15441219  0.48048754  0.48587624    -0.15000
C1525       C  0.14485663  0.44809345  0.50727525     0.35600
C1526       C  0.13523527  0.41429122  0.48835372    -0.26400
C1527       C  0.13444657  0.41255775  0.44841533    -0.15700
C1528       C  0.14830889  0.44377479  0.42738143     0.36700
N1529       N  0.14925729  0.44242790  0.38681587    -0.89900
H1530       H  0.16581837  0.50249588  0.42972799     0.17800
H1531       H  0.12449711  0.39040439  0.50474423     0.17800
N1532       N  0.14193984  0.45060304  0.54786634    -0.88900
H1533       H  0.17710641  0.44815347  0.37776276     0.35200
H1534       H  0.13183249  0.46401145  0.37656105     0.40300
H1535       H  0.16909864  0.45625892  0.55810769     0.39900
H1536       H  0.13360602  0.42447757  0.55945497     0.34800
loop_ 
_geom_bond_atom_site_label_1 
_geom_bond_atom_site_label_2 
_geom_bond_distance 
_geom_bond_site_symmetry_2 
_ccdc_geom_bond_type 
O1          Cr19   1.997       .  S
O1            C9   1.268       .  A
O2          Cr19   1.949       .  S
O2            C3   1.250       .  A
C3            O4   1.279       .  A
C3         C1457   1.495       .  S
O4          Cr20   2.077       .  S
O5          Cr20   2.015       .  S
O5            C6   1.271       .  A
C6            O7   1.269       .  A
C6         C1468   1.510       .  S
O7          Cr21   2.016       .  S
O8          Cr21   1.938       .  S
O8            C9   1.249       .  A
C9         C1513   1.430       .  S
O10         Cr19   1.978       .  S
O10          C18   1.256       .  A
O11         Cr19   2.011       .  S
O11          C12   1.269       .  A
C12          O13   1.261       .  A
C12        C1485   1.487       .  S
O13         Cr20   1.973       .  S
O14         Cr20   2.062       .  S
O14          C15   1.279       .  A
C15          O16   1.252       .  A
C15        C1499   1.476       .  S
O16         Cr21   1.937       .  S
O17         Cr21   2.022       .  S
O17          C18   1.265       .  A
C18        C1524   1.474       .  S
Cr19         O22   1.758       .  S
Cr20         O22   1.768       .  S
Cr21         O22   1.754       .  S
O23         Cr41   1.978       .  S
O23          C31   1.265       .  A
O24         Cr41   1.964       .  S
O24          C25   1.247       .  A
C25          O26   1.274       .  A
C25        C1387   1.499       .  S
O26         Cr42   2.064       .  S
O27         Cr42   2.024       .  S
O27          C28   1.272       .  A
C28          O29   1.261       .  A
C28        C1401   1.506       .  S
O29         Cr43   1.986       .  S
O30         Cr43   1.960       .  S
O30          C31   1.262       .  A
C31        C1510   1.463       .  S
O32         Cr41   1.982       .  S
O32          C40   1.254       .  A
O33         Cr41   1.968       .  S
O33          C34   1.267       .  A
C34          O35   1.275       .  A
C34        C1412   1.486       .  S
O35         Cr42   2.020       .  S
O36         Cr42   2.035       .  S
O36          C37   1.272       .  A
C37          O38   1.253       .  A
C37        C1426   1.481       .  S
O38         Cr43   1.957       .  S
O39         Cr43   1.999       .  S
O39          C40   1.260       .  A
C40        C1443   1.482       .  S
Cr41         O44   1.769       .  S
Cr42         O44   1.763       .  S
Cr43         O44   1.768       .  S
O45         Cr63   1.999       .  S
O45          C53   1.270       .  A
O46         Cr63   1.955       .  S
O46          C47   1.252       .  A
C47          O48   1.279       .  A
C47        C1300   1.492       .  S
O48         Cr64   2.073       .  S
O49         Cr64   2.011       .  S
O49          C50   1.271       .  A
C50          O51   1.272       .  A
C50        C1317   1.516       .  S
O51         Cr65   2.032       .  S
O52         Cr65   1.941       .  S
O52          C53   1.252       .  A
C53        C1356   1.443       .  S
O54         Cr63   1.980       .  S
O54          C62   1.256       .  A
O55         Cr63   2.017       .  S
O55          C56   1.271       .  A
C56          O57   1.263       .  A
C56        C1331   1.493       .  S
O57         Cr64   1.978       .  S
O58         Cr64   2.068       .  S
O58          C59   1.276       .  A
C59          O60   1.243       .  A
C59        C1342   1.465       .  S
O60         Cr65   1.938       .  S
O61         Cr65   2.009       .  S
O61          C62   1.264       .  A
C62        C1370   1.470       .  S
Cr63         O66   1.757       .  S
Cr64         O66   1.770       .  S
Cr65         O66   1.749       .  S
O67         Cr85   1.949       .  S
O67          C75   1.261       .  A
O68         Cr85   1.974       .  S
O68          C69   1.245       .  A
C69          O70   1.273       .  A
C69        C1230   1.501       .  S
O70         Cr86   2.070       .  S
O71         Cr86   2.032       .  S
O71          C72   1.271       .  A
C72          O73   1.261       .  A
C72        C1247   1.512       .  S
O73         Cr87   1.990       .  S
O74         Cr87   1.991       .  S
O74          C75   1.272       .  A
C75        C1359   1.451       .  S
O76         Cr85   1.984       .  S
O76          C84   1.249       .  A
O77         Cr85   1.956       .  S
O77          C78   1.264       .  A
C78          O79   1.281       .  A
C78        C1258   1.486       .  S
O79         Cr86   2.044       .  S
O80         Cr86   2.016       .  S
O80          C81   1.271       .  A
C81          O82   1.261       .  A
C81        C1275   1.473       .  S
O82         Cr87   1.965       .  S
O83         Cr87   2.002       .  S
O83          C84   1.256       .  A
C84        C1286   1.473       .  S
Cr85         O88   1.773       .  S
Cr86         O88   1.766       .  S
Cr87         O88   1.769       .  S
O89        Cr107   1.970       .  S
O89          C97   1.260       .  A
O90        Cr107   1.972       .  S
O90          C91   1.249       .  A
C91          O92   1.281       .  A
C91        C1149   1.502       .  S
O92        Cr108   2.073       .  S
O93        Cr108   2.032       .  S
O93          C94   1.271       .  A
C94          O95   1.263       .  A
C94        C1163   1.506       .  S
O95        Cr109   1.993       .  S
O96        Cr109   1.969       .  S
O96          C97   1.264       .  A
C97        C1202   1.455       .  S
O98        Cr107   1.988       .  S
O98         C106   1.255       .  A
O99        Cr107   1.979       .  S
O99         C100   1.265       .  A
C100        O101   1.273       .  A
C100       C1174   1.489       .  S
O101       Cr108   2.017       .  S
O102       Cr108   2.050       .  S
O102        C103   1.277       .  A
C103        O104   1.254       .  A
C103       C1188   1.498       .  S
O104       Cr109   1.962       .  S
O105       Cr109   1.991       .  S
O105        C106   1.259       .  A
C106       C1219   1.468       .  S
Cr107       O110   1.775       .  S
Cr108       O110   1.754       .  S
Cr109       O110   1.767       .  S
O111       Cr129   1.999       .  S
O111        C119   1.269       .  A
O112       Cr129   1.953       .  S
O112        C113   1.250       .  A
C113        O114   1.283       .  A
C113       C1076   1.502       .  S
O114       Cr130   2.090       .  S
O115       Cr130   2.019       .  S
O115        C116   1.273       .  A
C116        O117   1.272       .  A
C116       C1093   1.510       .  S
O117       Cr131   2.026       .  S
O118       Cr131   1.944       .  S
O118        C119   1.251       .  A
C119       C1205   1.444       .  S
O120       Cr129   1.981       .  S
O120        C128   1.257       .  A
O121       Cr129   2.023       .  S
O121        C122   1.272       .  A
C122        O123   1.264       .  A
C122       C1104   1.496       .  S
O123       Cr130   1.978       .  S
O124       Cr130   2.085       .  S
O124        C125   1.281       .  A
C125        O126   1.245       .  A
C125       C1118   1.491       .  S
O126       Cr131   1.934       .  S
O127       Cr131   2.012       .  S
O127        C128   1.265       .  A
C128       C1132   1.475       .  S
Cr129       O132   1.762       .  S
Cr130       O132   1.775       .  S
Cr131       O132   1.750       .  S
O133       Cr151   2.004       .  S
O133        C141   1.267       .  A
O134       Cr151   1.957       .  S
O134        C135   1.253       .  A
C135        O136   1.279       .  A
C135       C1009   1.495       .  S
O136       Cr152   2.073       .  S
O137       Cr152   2.012       .  S
O137        C138   1.270       .  A
C138        O139   1.271       .  A
C138       C1020   1.504       .  S
O139       Cr153   2.018       .  S
O140       Cr153   1.947       .  S
O140        C141   1.251       .  A
C141       C1062   1.442       .  S
O142       Cr151   1.968       .  S
O142        C150   1.254       .  A
O143       Cr151   2.012       .  S
O143        C144   1.267       .  A
C144        O145   1.261       .  A
C144       C1034   1.487       .  S
O145       Cr152   1.970       .  S
O146       Cr152   2.065       .  S
O146        C147   1.278       .  A
C147        O148   1.250       .  A
C147       C1048   1.481       .  S
O148       Cr153   1.934       .  S
O149       Cr153   2.022       .  S
O149        C150   1.268       .  A
C150       C1272   1.472   1_565  S
Cr151       O154   1.764       .  S
Cr152       O154   1.772       .  S
Cr153       O154   1.760       .  S
O155       Cr173   1.972       .  S
O155        C163   1.270       .  A
O156       Cr173   1.969       .  S
O156        C157   1.240       .  A
C157        O158   1.268       .  A
C157       C1244   1.503   1_565  S
O158       Cr174   2.072       .  S
O159       Cr174   2.011       .  S
O159        C160   1.269       .  A
C160        O161   1.270       .  A
C160        C953   1.523       .  S
O161       Cr175   2.022       .  S
O162       Cr175   1.979       .  S
O162        C163   1.269       .  A
C163       C1065   1.464       .  S
O164       Cr173   1.980       .  S
O164        C172   1.248       .  A
O165       Cr173   1.957       .  S
O165        C166   1.270       .  A
C166        O167   1.284       .  A
C166        C964   1.477       .  S
O167       Cr174   2.044       .  S
O168       Cr174   2.038       .  S
O168        C169   1.274       .  A
C169        O170   1.253       .  A
C169        C978   1.479       .  S
O170       Cr175   1.939       .  S
O171       Cr175   2.029       .  S
O171        C172   1.260       .  A
C172        C992   1.492       .  S
Cr173       O176   1.778       .  S
Cr174       O176   1.770       .  S
Cr175       O176   1.769       .  S
O177       Cr195   1.994       .  S
O177        C185   1.267       .  A
O178       Cr195   1.970       .  S
O178        C179   1.255       .  A
C179        O180   1.275       .  A
C179        C880   1.496   1_554  S
O180       Cr196   2.060       .  S
O181       Cr196   2.019       .  S
O181        C182   1.273       .  A
C182        O183   1.270       .  A
C182        C894   1.504       .  S
O183       Cr197   2.017       .  S
O184       Cr197   1.943       .  S
O184        C185   1.250       .  A
C185        C939   1.435       .  S
O186       Cr195   1.989       .  S
O186        C194   1.258       .  A
O187       Cr195   2.008       .  S
O187        C188   1.268       .  A
C188        O189   1.266       .  A
C188        C911   1.485   1_554  S
O189       Cr196   1.982       .  S
O190       Cr196   2.051       .  S
O190        C191   1.274       .  A
C191        O192   1.252       .  A
C191        C925   1.471       .  S
O192       Cr197   1.950       .  S
O193       Cr197   2.025       .  S
O193        C194   1.266       .  A
C194       C1429   1.486       .  S
Cr195       O198   1.766       .  S
Cr196       O198   1.775       .  S
Cr197       O198   1.761       .  S
O199       Cr217   1.959       .  S
O199        C207   1.267       .  A
O200       Cr217   1.971   1_655  S
O200        C201   1.244       .  A
C201        O202   1.266       .  A
C201       C1398   1.497       .  S
O202       Cr218   2.058       .  S
O203       Cr218   2.011       .  S
O203        C204   1.269       .  A
C204        O205   1.264       .  A
C204        C824   1.518       .  S
O205       Cr219   2.008       .  S
O206       Cr219   1.981   1_455  S
O206        C207   1.273       .  A
C207        C936   1.461       .  S
O208       Cr217   1.992       .  S
O208        C216   1.249       .  A
O209       Cr217   1.962   1_655  S
O209        C210   1.270       .  A
C210        O211   1.280       .  A
C210        C838   1.469       .  S
O211       Cr218   2.022       .  S
O212       Cr218   2.020       .  S
O212        C213   1.269       .  A
C213        O214   1.257       .  A
C213        C855   1.474       .  S
O214       Cr219   1.949       .  S
O215       Cr219   2.017   1_455  S
O215        C216   1.257       .  A
C216        C866   1.488   1_554  S
Cr217       O220   1.776   1_455  S
Cr218       O220   1.769       .  S
Cr219       O220   1.766       .  S
O221       Cr239   2.002       .  S
O221        C229   1.269       .  A
O222       Cr239   1.958       .  S
O222        C223   1.249   1_565  A
C223        O224   1.276       .  A
C223        C897   1.494   1_545  S
O224       Cr240   2.071       .  S
O225       Cr240   2.011       .  S
O225        C226   1.272       .  A
C226        O227   1.274       .  A
C226       C1303   1.510       .  S
O227       Cr241   2.031       .  S
O228       Cr241   1.927   1_565  S
O228        C229   1.247       .  A
C229        C810   1.428       .  S
O230       Cr239   1.975   1_545  S
O230        C238   1.253   1_545  A
O231       Cr239   2.020   1_545  S
O231        C232   1.272       .  A
C232        O233   1.264       .  A
C232       C1107   1.489       .  S
O233       Cr240   1.975       .  S
O234       Cr240   2.058       .  S
O234        C235   1.276       .  A
C235        O236   1.250       .  A
C235       C1289   1.473       .  S
O236       Cr241   1.946       .  S
O237       Cr241   2.030   1_565  S
O237        C238   1.267       .  A
C238       C1051   1.480       .  S
Cr239       O242   1.758   1_565  S
Cr240       O242   1.772       .  S
Cr241       O242   1.756       .  S
O243       Cr261   1.997       .  S
O243        C251   1.272       .  A
O244       Cr261   1.937       .  S
O244        C245   1.247       .  A
C245        O246   1.280       .  A
C245       C1023   1.490       .  S
O246       Cr262   2.076       .  S
O247       Cr262   2.032       .  S
O247        C248   1.272       .  A
C248        O249   1.264       .  A
C248       C1454   1.512       .  S
O249       Cr263   2.005       .  S
O250       Cr263   1.933       .  S
O250        C251   1.252       .  A
C251        C813   1.434       .  S
O252       Cr261   1.980       .  S
O252        C260   1.252       .  A
O253       Cr261   2.002       .  S
O253        C254   1.265       .  A
C254        O255   1.261       .  A
C254       C1177   1.489       .  S
O255       Cr262   1.978       .  S
O256       Cr262   2.055       .  S
O256        C257   1.282       .  A
C257        O258   1.257       .  A
C257       C1440   1.477       .  S
O258       Cr263   1.938       .  S
O259       Cr263   2.021       .  S
O259        C260   1.262       .  A
C260        C922   1.475       .  S
Cr261       O264   1.759       .  S
Cr262       O264   1.766       .  S
Cr263       O264   1.759       .  S
O265       Cr283   1.969       .  S
O265        C273   1.262       .  A
O266       Cr283   1.991       .  S
O266        C267   1.260       .  A
C267        O268   1.279       .  A
C267        C950   1.508       .  S
O268       Cr284   2.053       .  S
O269       Cr284   2.034       .  S
O269        C270   1.270       .  A
C270        O271   1.265       .  A
C270        C768   1.516       .  S
O271       Cr285   1.996       .  S
O272       Cr285   1.941       .  S
O272        C273   1.252       .  A
C273        C796   1.441       .  S
O274       Cr283   1.973       .  S
O274        C282   1.256       .  A
O275       Cr283   1.964       .  S
O275        C276   1.256       .  A
C276        O277   1.266       .  A
C276        C908   1.474       .  S
O277       Cr284   2.017       .  S
O278       Cr284   2.035       .  S
O278        C279   1.271       .  A
C279        O280   1.253       .  A
C279        C782   1.480       .  S
O280       Cr285   1.965       .  S
O281       Cr285   2.027       .  S
O281        C282   1.273       .  A
C282       C1191   1.502   1_556  S
Cr283       O286   1.775       .  S
Cr284       O286   1.775       .  S
Cr285       O286   1.785       .  S
O287       Cr305   1.953       .  S
O287        C295   1.257       .  A
O288       Cr305   1.979       .  S
O288        C289   1.252       .  A
C289        O290   1.276       .  A
C289       C1160   1.502   1_556  S
O290       Cr306   2.061       .  S
O291       Cr306   2.026       .  S
O291        C292   1.268       .  A
C292        O293   1.263       .  A
C292        C740   1.514       .  S
O293       Cr307   2.002       .  S
O294       Cr307   1.968       .  S
O294        C295   1.267       .  A
C295        C799   1.432       .  S
O296       Cr305   1.999       .  S
O296        C304   1.254       .  A
O297       Cr305   1.961       .  S
O297        C298   1.262       .  A
C298        O299   1.273       .  A
C298        C841   1.471       .  S
O299       Cr306   2.018       .  S
O300       Cr306   2.021       .  S
O300        C301   1.271       .  A
C301        O302   1.259       .  A
C301        C757   1.479       .  S
O302       Cr307   1.961       .  S
O303       Cr307   2.004       .  S
O303        C304   1.260       .  A
C304        C981   1.487       .  S
Cr305       O308   1.781       .  S
Cr306       O308   1.764       .  S
Cr307       O308   1.764       .  S
O309       Cr327   1.997   1_556  S
O309        C317   1.270       .  A
O310       Cr327   1.960   1_556  S
O310        C311   1.251   1_556  A
C311        O312   1.275       .  A
C311        C712   1.493       .  S
O312       Cr328   2.062       .  S
O313       Cr328   2.023       .  S
O313        C314   1.274       .  A
C314        O315   1.271       .  A
C314       C1079   1.514       .  S
O315       Cr329   2.023       .  S
O316       Cr329   1.931   1_556  S
O316        C317   1.252       .  A
C317        C729   1.429       .  S
O318       Cr327   1.987       .  S
O318        C326   1.254   1_554  A
O319       Cr327   2.011       .  S
O319        C320   1.268       .  A
C320        O321   1.261       .  A
C320       C1415   1.485       .  S
O321       Cr328   1.962       .  S
O322       Cr328   2.042       .  S
O322        C323   1.275       .  A
C323        O324   1.254       .  A
C323       C1216   1.471       .  S
O324       Cr329   1.946       .  S
O325       Cr329   2.025   1_556  S
O325        C326   1.264       .  A
C326        C785   1.484       .  S
Cr327       O330   1.766       .  S
Cr328       O330   1.774       .  S
Cr329       O330   1.760       .  S
O331       Cr349   1.991       .  S
O331        C339   1.268       .  A
O332       Cr349   1.952       .  S
O332        C333   1.250       .  A
C333        O334   1.277       .  A
C333        C771   1.491       .  S
O334       Cr350   2.068       .  S
O335       Cr350   2.024       .  S
O335        C336   1.271       .  A
C336        O337   1.267       .  A
C336       C1233   1.518       .  S
O337       Cr351   2.020       .  S
O338       Cr351   1.937       .  S
O338        C339   1.251       .  A
C339        C726   1.431       .  S
O340       Cr349   1.986       .  S
O340        C348   1.256       .  A
O341       Cr349   2.005       .  S
O341        C342   1.267       .  A
C342        O343   1.261       .  A
C342       C1482   1.487       .  S
O343       Cr350   1.975       .  S
O344       Cr350   2.056       .  S
O344        C345   1.280       .  A
C345        O346   1.256       .  A
C345       C1373   1.481       .  S
O346       Cr351   1.934       .  S
O347       Cr351   2.032       .  S
O347        C348   1.267       .  A
C348        C698   1.486       .  S
Cr349       O352   1.762       .  S
Cr350       O352   1.771       .  S
Cr351       O352   1.764       .  S
O353       Cr371   1.974       .  S
O353        C361   1.265       .  A
O354       Cr371   1.981       .  S
O354        C355   1.250       .  A
C355        O356   1.274       .  A
C355        C659   1.498   1_455  S
O356       Cr372   2.059       .  S
O357       Cr372   2.033       .  S
O357        C358   1.270       .  A
C358        O359   1.259       .  A
C358        C715   1.510       .  S
O359       Cr373   1.984       .  S
O360       Cr373   1.948       .  S
O360        C361   1.258       .  A
C361        C684   1.437       .  S
O362       Cr371   1.963       .  S
O362        C370   1.250       .  A
O363       Cr371   1.949       .  S
O363        C364   1.258       .  A
C364        O365   1.275       .  A
C364        C673   1.476       .  S
O365       Cr372   2.037       .  S
O366       Cr372   2.028       .  S
O366        C367   1.273       .  A
C367        O368   1.257       .  A
C367        C701   1.480       .  S
O368       Cr373   1.967       .  S
O369       Cr373   2.006       .  S
O369        C370   1.264       .  A
C370       C1345   1.466       .  S
Cr371       O374   1.780       .  S
Cr372       O374   1.773       .  S
Cr373       O374   1.772       .  S
O375       Cr393   1.968   1_545  S
O375        C383   1.264       .  A
O376       Cr393   1.977       .  S
O376        C377   1.248       .  A
C377        O378   1.274       .  A
C377       C1314   1.498       .  S
O378       Cr394   2.061       .  S
O379       Cr394   2.023       .  S
O379        C380   1.268       .  A
C380        O381   1.263       .  A
C380        C883   1.510       .  S
O381       Cr395   1.993       .  S
O382       Cr395   1.962   1_545  S
O382        C383   1.263       .  A
C383        C687   1.441       .  S
O384       Cr393   1.975   1_545  S
O384        C392   1.249   1_545  A
O385       Cr393   1.962       .  S
O385        C386   1.261       .  A
C386        O387   1.275       .  A
C386        C628   1.465       .  S
O387       Cr394   2.035       .  S
O388       Cr394   2.026       .  S
O388        C389   1.273       .  A
C389        O390   1.258       .  A
C389        C869   1.476       .  S
O390       Cr395   1.960       .  S
O391       Cr395   2.013       .  S
O391        C392   1.264       .  A
C392        C642   1.480   1_565  S
Cr393       O396   1.782       .  S
Cr394       O396   1.773       .  S
Cr395       O396   1.768       .  S
O397       Cr415   1.982       .  S
O397        C405   1.264       .  A
O398       Cr415   1.970       .  S
O398        C399   1.254       .  A
C399        O400   1.274       .  A
C399       C1471   1.491   1_655  S
O400       Cr416   2.040       .  S
O401       Cr416   2.062       .  S
O401        C402   1.279       .  A
C402        O403   1.262       .  A
C402       C1006   1.518       .  S
O403       Cr417   1.976       .  S
O404       Cr417   1.938       .  S
O404        C405   1.252       .  A
C405        C614   1.438       .  S
O406       Cr415   1.977       .  S
O406        C414   1.258       .  A
O407       Cr415   1.965       .  S
O407        C408   1.261       .  A
C408        O409   1.272       .  A
C408        C631   1.488   1_655  S
O409       Cr416   2.025       .  S
O410       Cr416   2.031       .  S
O410        C411   1.266       .  A
C411        O412   1.249       .  A
C411        C995   1.472       .  S
O412       Cr417   1.952       .  S
O413       Cr417   2.008       .  S
O413        C414   1.269       .  A
C414        C754   1.489       .  S
Cr415       O418   1.766       .  S
Cr416       O418   1.769       .  S
Cr417       O418   1.768       .  S
O419       Cr437   1.963       .  S
O419        C427   1.267       .  A
O420       Cr437   1.966       .  S
O420        C421   1.242       .  A
C421        O422   1.272       .  A
C421        C743   1.507       .  S
O422       Cr438   2.072       .  S
O423       Cr438   2.036       .  S
O423        C424   1.274       .  A
C424        O425   1.262       .  A
C424        C589   1.519       .  S
O425       Cr439   1.985       .  S
O426       Cr439   1.964       .  S
O426        C427   1.267       .  A
C427        C617   1.456       .  S
O428       Cr437   1.984       .  S
O428        C436   1.248       .  A
O429       Cr437   1.958       .  S
O429        C430   1.268       .  A
C430        O431   1.283       .  A
C430        C670   1.479       .  S
O431       Cr438   2.036       .  S
O432       Cr438   2.039       .  S
O432        C433   1.273       .  A
C433        O434   1.251       .  A
C433        C600   1.479       .  S
O434       Cr439   1.938       .  S
O435       Cr439   2.006       .  S
O435        C436   1.257       .  A
C436       C1496   1.480   1_655  S
Cr437       O440   1.777       .  S
Cr438       O440   1.770       .  S
Cr439       O440   1.766       .  S
O441       Cr459   2.001   1_655  S
O441        C449   1.269       .  A
O442       Cr459   1.968   1_655  S
O442        C443   1.251   1_655  A
C443        O444   1.275       .  A
C443        C561   1.498       .  S
O444       Cr460   2.068       .  S
O445       Cr460   2.004       .  S
O445        C446   1.269       .  A
C446        O447   1.274       .  A
C446       C1384   1.509       .  S
O447       Cr461   2.034       .  S
O448       Cr461   1.924   1_655  S
O448        C449   1.247       .  A
C449        C572   1.429       .  S
O450       Cr459   1.983       .  S
O450        C458   1.256   1_455  A
O451       Cr459   2.022       .  S
O451        C452   1.273       .  A
C452        O453   1.263       .  A
C452       C1328   1.485       .  S
O453       Cr460   1.967       .  S
O454       Cr460   2.068       .  S
O454        C455   1.279       .  A
C455        O456   1.250       .  A
C455       C1527   1.482       .  S
O456       Cr461   1.942       .  S
O457       Cr461   2.024       .  S
O457        C458   1.267   1_455  A
C458        C603   1.484       .  S
Cr459       O462   1.762       .  S
Cr460       O462   1.771       .  S
Cr461       O462   1.761       .  S
O463       Cr481   1.993       .  S
O463        C471   1.270       .  A
O464       Cr481   1.944       .  S
O464        C465   1.249       .  A
C465        O466   1.281       .  A
C465        C586   1.495       .  S
O466       Cr482   2.078       .  S
O467       Cr482   2.034       .  S
O467        C468   1.272       .  A
C468        O469   1.264       .  A
C468       C1146   1.517       .  S
O469       Cr483   2.008       .  S
O470       Cr483   1.941       .  S
O470        C471   1.253       .  A
C471        C575   1.433       .  S
O472       Cr481   1.980       .  S
O472        C480   1.252       .  A
O473       Cr481   1.998       .  S
O473        C474   1.263       .  A
C474        O475   1.261       .  A
C474       C1261   1.489       .  S
O475       Cr482   1.975       .  S
O476       Cr482   2.066       .  S
O476        C477   1.283       .  A
C477        O478   1.257       .  A
C477       C1135   1.485       .  S
O478       Cr483   1.932       .  S
O479       Cr483   2.026       .  S
O479        C480   1.265       .  A
C480        C544   1.479       .  S
Cr481       O484   1.762       .  S
Cr482       O484   1.766       .  S
Cr483       O484   1.766       .  S
O485       Cr503   1.953       .  S
O485        C493   1.260       .  A
O486       Cr503   1.965       .  S
O486        C487   1.244       .  A
C487        O488   1.273       .  A
C487        C827   1.508   1_545  S
O488       Cr504   2.078       .  S
O489       Cr504   2.022       .  S
O489        C490   1.269       .  A
C490        O491   1.265       .  A
C490        C558   1.521       .  S
O491       Cr505   1.999       .  S
O492       Cr505   1.977       .  S
O492        C493   1.270       .  A
C493        C530   1.453       .  S
O494       Cr503   1.995       .  S
O494        C502   1.250       .  A
O495       Cr503   1.959       .  S
O495        C496   1.266       .  A
C496        O497   1.283       .  A
C496       C1037   1.492   1_545  S
O497       Cr504   2.046       .  S
O498       Cr504   2.029       .  S
O498        C499   1.274       .  A
C499        O500   1.256       .  A
C499        C547   1.473       .  S
O500       Cr505   1.944       .  S
O501       Cr505   2.012       .  S
O501        C502   1.260       .  A
C502       C1121   1.488       .  S
Cr503       O506   1.774       .  S
Cr504       O506   1.767       .  S
Cr505       O506   1.763       .  S
O507       Cr525   1.997       .  S
O507        C515   1.268       .  A
O508       Cr525   1.957       .  S
O508        C509   1.252   1_554  A
C509        O510   1.282       .  A
C509       C1090   1.500   1_556  S
O510       Cr526   2.084       .  S
O511       Cr526   2.021       .  S
O511        C512   1.273       .  A
C512        O513   1.270       .  A
C512        C656   1.522       .  S
O513       Cr527   2.028       .  S
O514       Cr527   1.932   1_554  S
O514        C515   1.249       .  A
C515        C533   1.432       .  S
O516       Cr525   1.980   1_556  S
O516        C524   1.255   1_556  A
O517       Cr525   2.007   1_556  S
O517        C518   1.268       .  A
C518        O519   1.263       .  A
C518        C967   1.482       .  S
O519       Cr526   1.973       .  S
O520       Cr526   2.084       .  S
O520        C521   1.282       .  A
C521        O522   1.244       .  A
C521        C645   1.484       .  S
O522       Cr527   1.925       .  S
O523       Cr527   2.015   1_554  S
O523        C524   1.265       .  A
C524        C852   1.474   1_545  S
Cr525       O528   1.760   1_554  S
Cr526       O528   1.768       .  S
Cr527       O528   1.747       .  S
C529        C530   1.407       .  A
C529        C534   1.393       .  A
C529        H536   1.084       .  S
C530        C531   1.406       .  A
C531        C532   1.386       .  A
C531        N538   1.434       .  S
C532        C533   1.397       .  A
C532        H537   1.085       .  S
C533        C534   1.398       .  A
C534        N535   1.438       .  S
N535        H539   1.046       .  S
N535        H540   1.045       .  S
N538        H541   1.045   1_545  S
N538        H542   1.047   1_545  S
C543        C544   1.407       .  A
C543        C548   1.413       .  A
C543        H550   1.084       .  S
C544        C545   1.407       .  A
C545        C546   1.400       .  A
C545        N552   1.434       .  S
C546        C547   1.405       .  A
C546        H551   1.085       .  S
C547        C548   1.409       .  A
C548        N549   1.431       .  S
N549        H553   1.046       .  S
N549        H554   1.045       .  S
N552        H555   1.046       .  S
N552        H556   1.046       .  S
C557        C558   1.415       .  A
C557        C562   1.419       .  A
C557        H564   1.083       .  S
C558        C559   1.426       .  A
C559        C560   1.412   1_655  A
C559        N566   1.432       .  S
C560        C561   1.405       .  A
C560        H565   1.084       .  S
C561        C562   1.411   1_455  A
C562        N563   1.437       .  S
N563        H567   1.046       .  S
N563        H568   1.045   1_655  S
N566        H569   1.046   1_655  S
N566        H570   1.044       .  S
C571        C572   1.395       .  A
C571        C576   1.387       .  A
C571        H578   1.085       .  S
C572        C573   1.401       .  A
C573        C574   1.393       .  A
C573        N580   1.438       .  S
C574        C575   1.398       .  A
C574        H579   1.084       .  S
C575        C576   1.401       .  A
C576        N577   1.433       .  S
N577        H581   1.045       .  S
N577        H582   1.046       .  S
N580        H583   1.045       .  S
N580        H584   1.047       .  S
C585        C586   1.402       .  A
C585        C590   1.412       .  A
C585        H592   1.084       .  S
C586        C587   1.417       .  A
C587        C588   1.421       .  A
C587        N594   1.437       .  S
C588        C589   1.411       .  A
C588        H593   1.083       .  S
C589        C590   1.423       .  A
C590        N591   1.432       .  S
N591        H595   1.046       .  S
N591        H596   1.046       .  S
N594        H597   1.044       .  S
N594        H598   1.047       .  S
C599        C600   1.410       .  A
C599        C604   1.406       .  A
C599        H606   1.084       .  S
C600        C601   1.408       .  A
C601        C602   1.410       .  A
C601        N608   1.432       .  S
C602        C603   1.405       .  A
C602        H607   1.084       .  S
C603        C604   1.410       .  A
C604        N605   1.433   1_655  S
N605        H609   1.045       .  S
N605        H610   1.046       .  S
N608        H611   1.045       .  S
N608        H612   1.046       .  S
C613        C614   1.403       .  A
C613        C618   1.383       .  A
C613        H620   1.085       .  S
C614        C615   1.404       .  A
C615        C616   1.389       .  A
C615        N622   1.439       .  S
C616        C617   1.411       .  A
C616        H621   1.084       .  S
C617        C618   1.402       .  A
C618        N619   1.433       .  S
N619        H623   1.045       .  S
N619        H624   1.046       .  S
N622        H625   1.042       .  S
N622        H626   1.046       .  S
C627        C628   1.399       .  A
C627        C632   1.407       .  A
C627        H634   1.084       .  S
C628        C629   1.401       .  A
C629        C630   1.402       .  A
C629        N636   1.433       .  S
C630        C631   1.410       .  A
C630        H635   1.084   1_455  S
C631        C632   1.418       .  A
C632        N633   1.438       .  S
N633        H637   1.047       .  S
N633        H638   1.044       .  S
N636        H639   1.046       .  S
N636        H640   1.046       .  S
C641        C642   1.411   1_655  A
C641        C646   1.408       .  A
C641        H648   1.083   1_655  S
C642        C643   1.406   1_445  A
C643        C644   1.400   1_565  A
C643        N650   1.433       .  S
C644        C645   1.415       .  A
C644        H649   1.085   1_545  S
C645        C646   1.406       .  A
C646        N647   1.432       .  S
N647        H651   1.045       .  S
N647        H652   1.046       .  S
N650        H653   1.045       .  S
N650        H654   1.045       .  S
C655        C656   1.410       .  A
C655        C660   1.417       .  A
C655        H662   1.083       .  S
C656        C657   1.431       .  A
C657        C658   1.412   1_655  A
C657        N664   1.432       .  S
C658        C659   1.402   1_455  A
C658        H663   1.084       .  S
C659        C660   1.414       .  A
C660        N661   1.432       .  S
N661        H665   1.045       .  S
N661        H666   1.046       .  S
N664        H667   1.044       .  S
N664        H668   1.045       .  S
C669        C670   1.409       .  A
C669        C674   1.402   1_655  A
C669        H676   1.084       .  S
C670        C671   1.407       .  A
C671        C672   1.398       .  A
C671        N678   1.433       .  S
C672        C673   1.405   1_655  A
C672        H677   1.084       .  S
C673        C674   1.412       .  A
C674        N675   1.432       .  S
N675        H679   1.044       .  S
N675        H680   1.047       .  S
N678        H681   1.045       .  S
N678        H682   1.046       .  S
C683        C684   1.399       .  A
C683        C688   1.394       .  A
C683        H690   1.085       .  S
C684        C685   1.404       .  A
C685        C686   1.391       .  A
C685        N692   1.433       .  S
C686        C687   1.400       .  A
C686        H691   1.085       .  S
C687        C688   1.405       .  A
C688        N689   1.433       .  S
N689        H693   1.046       .  S
N689        H694   1.045       .  S
N692        H695   1.046       .  S
N692        H696   1.046       .  S
C697        C698   1.402       .  A
C697        C702   1.411       .  A
C697        H704   1.084       .  S
C698        C699   1.414       .  A
C699        C700   1.403       .  A
C699        N706   1.432       .  S
C700        C701   1.405       .  A
C700        H705   1.084       .  S
C701        C702   1.420       .  A
C702        N703   1.438       .  S
N703        H707   1.043       .  S
N703        H708   1.047       .  S
N706        H709   1.048       .  S
N706        H710   1.042       .  S
C711        C712   1.403   1_556  A
C711        C716   1.412       .  A
C711        H718   1.084       .  S
C712        C713   1.414       .  A
C713        C714   1.418   1_554  A
C713        N720   1.436       .  S
C714        C715   1.409       .  A
C714        H719   1.083       .  S
C715        C716   1.420       .  A
C716        N717   1.432       .  S
N717        H721   1.045       .  S
N717        H722   1.046       .  S
N720        H723   1.047       .  S
N720        H724   1.043       .  S
C725        C726   1.396       .  A
C725        C730   1.389       .  A
C725        H732   1.085       .  S
C726        C727   1.403       .  A
C727        C728   1.388       .  A
C727        N734   1.434       .  S
C728        C729   1.394       .  A
C728        H733   1.085       .  S
C729        C730   1.402       .  A
C730        N731   1.433       .  S
N731        H735   1.046       .  S
N731        H736   1.046       .  S
N734        H737   1.046       .  S
N734        H738   1.045       .  S
C739        C740   1.413       .  A
C739        C744   1.420       .  A
C739        H746   1.084       .  S
C740        C741   1.417       .  A
C741        C742   1.410       .  A
C741        N748   1.433       .  S
C742        C743   1.413       .  A
C742        H747   1.084       .  S
C743        C744   1.422       .  A
C744        N745   1.437       .  S
N745        H749   1.043       .  S
N745        H750   1.044       .  S
N748        H751   1.045       .  S
N748        H752   1.044       .  S
C753        C754   1.416       .  A
C753        C758   1.406       .  A
C753        H760   1.084       .  S
C754        C755   1.408       .  A
C755        C756   1.404       .  A
C755        N762   1.436       .  S
C756        C757   1.409       .  A
C756        H761   1.083       .  S
C757        C758   1.399       .  A
C758        N759   1.431       .  S
N759        H763   1.045       .  S
N759        H764   1.046       .  S
N762        H765   1.043       .  S
N762        H766   1.046       .  S
C767        C768   1.413       .  A
C767        C772   1.416       .  A
C767        H774   1.083       .  S
C768        C769   1.425       .  A
C769        C770   1.411       .  A
C769        N776   1.432       .  S
C770        C771   1.406       .  A
C770        H775   1.084       .  S
C771        C772   1.409       .  A
C772        N773   1.437       .  S
N773        H777   1.045       .  S
N773        H778   1.046       .  S
N776        H779   1.044       .  S
N776        H780   1.046       .  S
C781        C782   1.408       .  A
C781        C786   1.414       .  A
C781        H788   1.084       .  S
C782        C783   1.413       .  A
C783        C784   1.407       .  A
C783        N790   1.438       .  S
C784        C785   1.402       .  A
C784        H789   1.084       .  S
C785        C786   1.408       .  A
C786        N787   1.431   1_556  S
N787        H791   1.045       .  S
N787        H792   1.046       .  S
N790        H793   1.045       .  S
N790        H794   1.046       .  S
C795        C796   1.402       .  A
C795        C800   1.389       .  A
C795        H802   1.084       .  S
C796        C797   1.410       .  A
C797        C798   1.392       .  A
C797        N804   1.438       .  S
C798        C799   1.395       .  A
C798        H803   1.085       .  S
C799        C800   1.405       .  A
C800        N801   1.437       .  S
N801        H805   1.046       .  S
N801        H806   1.046       .  S
N804        H807   1.044       .  S
N804        H808   1.047       .  S
C809        C810   1.392       .  A
C809        C814   1.388       .  A
C809        H816   1.084       .  S
C810        C811   1.402       .  A
C811        C812   1.387       .  A
C811        N818   1.433       .  S
C812        C813   1.396       .  A
C812        H817   1.085       .  S
C813        C814   1.405       .  A
C814        N815   1.433       .  S
N815        H819   1.047       .  S
N815        H820   1.044       .  S
N818        H821   1.044       .  S
N818        H822   1.046       .  S
C823        C824   1.405       .  A
C823        C828   1.407       .  A
C823        H830   1.083       .  S
C824        C825   1.424       .  A
C825        C826   1.425       .  A
C825        N832   1.431   1_655  S
C826        C827   1.408       .  A
C826        H831   1.083   1_565  S
C827        C828   1.419       .  A
C828        N829   1.434       .  S
N829        H833   1.046       .  S
N829        H834   1.046       .  S
N832        H835   1.046       .  S
N832        H836   1.045   1_455  S
C837        C838   1.403       .  A
C837        C842   1.401   1_554  A
C837        H844   1.084       .  S
C838        C839   1.408       .  A
C839        C840   1.397       .  A
C839        N846   1.433       .  S
C840        C841   1.403   1_554  A
C840        H845   1.084       .  S
C841        C842   1.410       .  A
C842        N843   1.433       .  S
N843        H847   1.045       .  S
N843        H848   1.046       .  S
N846        H849   1.046       .  S
N846        H850   1.045       .  S
C851        C852   1.397   1_556  A
C851        C856   1.404   1_556  A
C851        H858   1.084       .  S
C852        C853   1.416       .  A
C853        C854   1.405       .  A
C853        N860   1.432       .  S
C854        C855   1.401       .  A
C854        H859   1.084       .  S
C855        C856   1.413       .  A
C856        N857   1.437   1_554  S
N857        H861   1.046       .  S
N857        H862   1.046       .  S
N860        H863   1.045       .  S
N860        H864   1.045   1_565  S
C865        C866   1.405       .  A
C865        C870   1.402       .  A
C865        H872   1.084   1_556  S
C866        C867   1.411       .  A
C867        C868   1.413       .  A
C867        N874   1.435   1_455  S
C868        C869   1.405       .  A
C868        H873   1.084       .  S
C869        C870   1.415       .  A
C870        N871   1.434       .  S
N871        H875   1.045       .  S
N871        H876   1.045       .  S
N874        H877   1.045       .  S
N874        H878   1.047       .  S
C879        C880   1.408       .  A
C879        C884   1.420       .  A
C879        H886   1.084       .  S
C880        C881   1.407       .  A
C881        C882   1.411       .  A
C881        N888   1.432   1_556  S
C882        C883   1.411       .  A
C882        H887   1.083       .  S
C883        C884   1.419       .  A
C884        N885   1.437       .  S
N885        H889   1.045       .  S
N885        H890   1.046       .  S
N888        H891   1.046       .  S
N888        H892   1.046       .  S
C893        C894   1.410       .  A
C893        C898   1.410       .  A
C893        H900   1.084       .  S
C894        C895   1.411       .  A
C895        C896   1.417       .  A
C895        N902   1.431       .  S
C896        C897   1.410       .  A
C896        H901   1.084   1_565  S
C897        C898   1.417       .  A
C898        N899   1.438       .  S
N899        H903   1.047       .  S
N899        H904   1.044       .  S
N902        H905   1.046       .  S
N902        H906   1.046   1_565  S
C907        C908   1.402       .  A
C907        C912   1.404       .  A
C907        H914   1.084       .  S
C908        C909   1.411       .  A
C909        C910   1.402       .  A
C909        N916   1.433       .  S
C910        C911   1.409       .  A
C910        H915   1.084       .  S
C911        C912   1.413       .  A
C912        N913   1.437   1_556  S
N913        H917   1.046   1_554  S
N913        H918   1.046   1_554  S
N916        H919   1.045       .  S
N916        H920   1.046       .  S
C921        C922   1.401       .  A
C921        C926   1.408       .  A
C921        H928   1.084       .  S
C922        C923   1.408       .  A
C923        C924   1.404       .  A
C923        N930   1.433       .  S
C924        C925   1.403       .  A
C924        H929   1.084       .  S
C925        C926   1.412       .  A
C926        N927   1.437       .  S
N927        H931   1.049       .  S
N927        H932   1.042       .  S
N930        H933   1.044       .  S
N930        H934   1.047       .  S
C935        C936   1.409       .  A
C935        C940   1.387       .  A
C935        H942   1.084       .  S
C936        C937   1.410       .  A
C937        C938   1.391       .  A
C937        N944   1.437       .  S
C938        C939   1.396       .  A
C938        H943   1.085       .  S
C939        C940   1.399       .  A
C940        N941   1.433       .  S
N941        H945   1.046       .  S
N941        H946   1.045       .  S
N944        H947   1.043       .  S
N944        H948   1.046       .  S
C949        C950   1.409       .  A
C949        C954   1.418       .  A
C949        H956   1.084       .  S
C950        C951   1.416       .  A
C951        C952   1.418       .  A
C951        N958   1.431       .  S
C952        C953   1.415       .  A
C952        H957   1.083       .  S
C953        C954   1.421       .  A
C954        N955   1.438       .  S
N955        H959   1.045       .  S
N955        H960   1.046       .  S
N958        H961   1.046       .  S
N958        H962   1.045       .  S
C963        C964   1.402       .  A
C963        C968   1.406   1_565  A
C963        H970   1.084       .  S
C964        C965   1.411   1_565  A
C965        C966   1.399       .  A
C965        N972   1.433       .  S
C966        C967   1.403       .  A
C966        H971   1.084       .  S
C967        C968   1.414       .  A
C968        N969   1.432       .  S
N969        H973   1.046   1_545  S
N969        H974   1.045       .  S
N972        H975   1.046       .  S
N972        H976   1.046       .  S
C977        C978   1.404       .  A
C977        C982   1.409       .  A
C977        H984   1.084       .  S
C978        C979   1.411       .  A
C979        C980   1.404       .  A
C979        N986   1.431       .  S
C980        C981   1.399       .  A
C980        H985   1.084       .  S
C981        C982   1.419       .  A
C982        N983   1.431       .  S
N983        H987   1.045       .  S
N983        H988   1.045       .  S
N986        H989   1.046       .  S
N986        H990   1.045       .  S
C991        C992   1.407       .  A
C991        C996   1.403       .  A
C991        H998   1.084       .  S
C992        C993   1.409       .  A
C993        C994   1.414       .  A
C993       N1000   1.431       .  S
C994        C995   1.409       .  A
C994        H999   1.084       .  S
C995        C996   1.405       .  A
C996        N997   1.432       .  S
N997       H1001   1.046       .  S
N997       H1002   1.046       .  S
N1000      H1003   1.046       .  S
N1000      H1004   1.041       .  S
C1005      C1006   1.414       .  A
C1005      C1010   1.409       .  A
C1005      H1012   1.083       .  S
C1006      C1007   1.422       .  A
C1007      C1008   1.416       .  A
C1007      N1014   1.432       .  S
C1008      C1009   1.410       .  A
C1008      H1013   1.084       .  S
C1009      C1010   1.414       .  A
C1010      N1011   1.438       .  S
N1011      H1015   1.045       .  S
N1011      H1016   1.045       .  S
N1014      H1017   1.046       .  S
N1014      H1018   1.044       .  S
C1019      C1020   1.405       .  A
C1019      C1024   1.416       .  A
C1019      H1026   1.084       .  S
C1020      C1021   1.415       .  A
C1021      C1022   1.412       .  A
C1021      N1028   1.432       .  S
C1022      C1023   1.405       .  A
C1022      H1027   1.084       .  S
C1023      C1024   1.414       .  A
C1024      N1025   1.430       .  S
N1025      H1029   1.046       .  S
N1025      H1030   1.044       .  S
N1028      H1031   1.046       .  S
N1028      H1032   1.045       .  S
C1033      C1034   1.404       .  A
C1033      C1038   1.396       .  A
C1033      H1040   1.084       .  S
C1034      C1035   1.412       .  A
C1035      C1036   1.406       .  A
C1035      N1042   1.432       .  S
C1036      C1037   1.408       .  A
C1036      H1041   1.083       .  S
C1037      C1038   1.423       .  A
C1038      N1039   1.433       .  S
N1039      H1043   1.045       .  S
N1039      H1044   1.046   1_565  S
N1042      H1045   1.045       .  S
N1042      H1046   1.046       .  S
C1047      C1048   1.402       .  A
C1047      C1052   1.412       .  A
C1047      H1054   1.084       .  S
C1048      C1049   1.420       .  A
C1049      C1050   1.402       .  A
C1049      N1056   1.434       .  S
C1050      C1051   1.398       .  A
C1050      H1055   1.084   1_565  S
C1051      C1052   1.414       .  A
C1052      N1053   1.437       .  S
N1053      H1057   1.046       .  S
N1053      H1058   1.045       .  S
N1056      H1059   1.045       .  S
N1056      H1060   1.044       .  S
C1061      C1062   1.390       .  A
C1061      C1066   1.393       .  A
C1061      H1068   1.084       .  S
C1062      C1063   1.404       .  A
C1063      C1064   1.393       .  A
C1063      N1070   1.432       .  S
C1064      C1065   1.400       .  A
C1064      H1069   1.084       .  S
C1065      C1066   1.416       .  A
C1066      N1067   1.433       .  S
N1067      H1071   1.046       .  S
N1067      H1072   1.045       .  S
N1070      H1073   1.045       .  S
N1070      H1074   1.044       .  S
C1075      C1076   1.405       .  A
C1075      C1080   1.413       .  A
C1075      H1082   1.084       .  S
C1076      C1077   1.416       .  A
C1077      C1078   1.422       .  A
C1077      N1084   1.431       .  S
C1078      C1079   1.409       .  A
C1078      H1083   1.083       .  S
C1079      C1080   1.419       .  A
C1080      N1081   1.433       .  S
N1081      H1085   1.045   1_554  S
N1081      H1086   1.046       .  S
N1084      H1087   1.046       .  S
N1084      H1088   1.045       .  S
C1089      C1090   1.405       .  A
C1089      C1094   1.414       .  A
C1089      H1096   1.084       .  S
C1090      C1091   1.416   1_554  A
C1091      C1092   1.420   1_556  A
C1091      N1098   1.431       .  S
C1092      C1093   1.408       .  A
C1092      H1097   1.083       .  S
C1093      C1094   1.416       .  A
C1094      N1095   1.432       .  S
N1095      H1099   1.046       .  S
N1095      H1100   1.045       .  S
N1098      H1101   1.046       .  S
N1098      H1102   1.045       .  S
C1103      C1104   1.408       .  A
C1103      C1108   1.404       .  A
C1103      H1110   1.083       .  S
C1104      C1105   1.415       .  A
C1105      C1106   1.407       .  A
C1105      N1112   1.432       .  S
C1106      C1107   1.406       .  A
C1106      H1111   1.084       .  S
C1107      C1108   1.411       .  A
C1108      N1109   1.433       .  S
N1109      H1113   1.046       .  S
N1109      H1114   1.045       .  S
N1112      H1115   1.045       .  S
N1112      H1116   1.046       .  S
C1117      C1118   1.413       .  A
C1117      C1122   1.403       .  A
C1117      H1124   1.084       .  S
C1118      C1119   1.412       .  A
C1119      C1120   1.416       .  A
C1119      N1126   1.437       .  S
C1120      C1121   1.410       .  A
C1120      H1125   1.084       .  S
C1121      C1122   1.404       .  A
C1122      N1123   1.433       .  S
N1123      H1127   1.046       .  S
N1123      H1128   1.046       .  S
N1126      H1129   1.044       .  S
N1126      H1130   1.047       .  S
C1131      C1132   1.395       .  A
C1131      C1136   1.398       .  A
C1131      H1138   1.084       .  S
C1132      C1133   1.419       .  A
C1133      C1134   1.409       .  A
C1133      N1140   1.433       .  S
C1134      C1135   1.404       .  A
C1134      H1139   1.084       .  S
C1135      C1136   1.416       .  A
C1136      N1137   1.434       .  S
N1137      H1141   1.046       .  S
N1137      H1142   1.046       .  S
N1140      H1143   1.046       .  S
N1140      H1144   1.043       .  S
C1145      C1146   1.406       .  A
C1145      C1150   1.420       .  A
C1145      H1152   1.083       .  S
C1146      C1147   1.423       .  A
C1147      C1148   1.416       .  A
C1147      N1154   1.432       .  S
C1148      C1149   1.402       .  A
C1148      H1153   1.084       .  S
C1149      C1150   1.422       .  A
C1150      N1151   1.438       .  S
N1151      H1155   1.045       .  S
N1151      H1156   1.046       .  S
N1154      H1157   1.045       .  S
N1154      H1158   1.046       .  S
C1159      C1160   1.406       .  A
C1159      C1164   1.414       .  A
C1159      H1166   1.084   1_554  S
C1160      C1161   1.420       .  A
C1161      C1162   1.415       .  A
C1161      N1168   1.438       .  S
C1162      C1163   1.404       .  A
C1162      H1167   1.084       .  S
C1163      C1164   1.423       .  A
C1164      N1165   1.432       .  S
N1165      H1169   1.045       .  S
N1165      H1170   1.045       .  S
N1168      H1171   1.043       .  S
N1168      H1172   1.048       .  S
C1173      C1174   1.406       .  A
C1173      C1178   1.401       .  A
C1173      H1180   1.083       .  S
C1174      C1175   1.412       .  A
C1175      C1176   1.406       .  A
C1175      N1182   1.432       .  S
C1176      C1177   1.408       .  A
C1176      H1181   1.084       .  S
C1177      C1178   1.411       .  A
C1178      N1179   1.431       .  S
N1179      H1183   1.046       .  S
N1179      H1184   1.046       .  S
N1182      H1185   1.046       .  S
N1182      H1186   1.045       .  S
C1187      C1188   1.415       .  A
C1187      C1192   1.407       .  A
C1187      H1194   1.083       .  S
C1188      C1189   1.408       .  A
C1189      C1190   1.410       .  A
C1189      N1196   1.431       .  S
C1190      C1191   1.420       .  A
C1190      H1195   1.084       .  S
C1191      C1192   1.405       .  A
C1192      N1193   1.432       .  S
N1193      H1197   1.046       .  S
N1193      H1198   1.045   1_554  S
N1196      H1199   1.046       .  S
N1196      H1200   1.045       .  S
C1201      C1202   1.410       .  A
C1201      C1206   1.394       .  A
C1201      H1208   1.084       .  S
C1202      C1203   1.410       .  A
C1203      C1204   1.384       .  A
C1203      N1210   1.433       .  S
C1204      C1205   1.399       .  A
C1204      H1209   1.082       .  S
C1205      C1206   1.395       .  A
C1206      N1207   1.432       .  S
N1207      H1211   1.046       .  S
N1207      H1212   1.045       .  S
N1210      H1213   1.047       .  S
N1210      H1214   1.042       .  S
C1215      C1216   1.406       .  A
C1215      C1220   1.394       .  A
C1215      H1222   1.084       .  S
C1216      C1217   1.412       .  A
C1217      C1218   1.406       .  A
C1217      N1224   1.438       .  S
C1218      C1219   1.403       .  A
C1218      H1223   1.084       .  S
C1219      C1220   1.409       .  A
C1220      N1221   1.432       .  S
N1221      H1225   1.042       .  S
N1221      H1226   1.046       .  S
N1224      H1227   1.047       .  S
N1224      H1228   1.044       .  S
C1229      C1230   1.404       .  A
C1229      C1234   1.418       .  A
C1229      H1236   1.084       .  S
C1230      C1231   1.419       .  A
C1231      C1232   1.418       .  A
C1231      N1238   1.438       .  S
C1232      C1233   1.407       .  A
C1232      H1237   1.083       .  S
C1233      C1234   1.423       .  A
C1234      N1235   1.432       .  S
N1235      H1239   1.045       .  S
N1235      H1240   1.046       .  S
N1238      H1241   1.045       .  S
N1238      H1242   1.046       .  S
C1243      C1244   1.405   1_565  A
C1243      C1248   1.419   1_565  A
C1243      H1250   1.084       .  S
C1244      C1245   1.418       .  A
C1245      C1246   1.414       .  A
C1245      N1252   1.433       .  S
C1246      C1247   1.405       .  A
C1246      H1251   1.084       .  S
C1247      C1248   1.422       .  A
C1248      N1249   1.432       .  S
N1249      H1253   1.043       .  S
N1249      H1254   1.048   1_545  S
N1252      H1255   1.045       .  S
N1252      H1256   1.046       .  S
C1257      C1258   1.404       .  A
C1257      C1262   1.405       .  A
C1257      H1264   1.084       .  S
C1258      C1259   1.418       .  A
C1259      C1260   1.402       .  A
C1259      N1266   1.439       .  S
C1260      C1261   1.404       .  A
C1260      H1265   1.083       .  S
C1261      C1262   1.415       .  A
C1262      N1263   1.432       .  S
N1263      H1267   1.047       .  S
N1263      H1268   1.045       .  S
N1266      H1269   1.045       .  S
N1266      H1270   1.046       .  S
C1271      C1272   1.397       .  A
C1271      C1276   1.405       .  A
C1271      H1278   1.084       .  S
C1272      C1273   1.411       .  A
C1273      C1274   1.407       .  A
C1273      N1280   1.433   1_545  S
C1274      C1275   1.400       .  A
C1274      H1279   1.084       .  S
C1275      C1276   1.414       .  A
C1276      N1277   1.438       .  S
N1277      H1281   1.045       .  S
N1277      H1282   1.047       .  S
N1280      H1283   1.046       .  S
N1280      H1284   1.044   1_565  S
C1285      C1286   1.401       .  A
C1285      C1290   1.404       .  A
C1285      H1292   1.084       .  S
C1286      C1287   1.412       .  A
C1287      C1288   1.400       .  A
C1287      N1294   1.434       .  S
C1288      C1289   1.404       .  A
C1288      H1293   1.084       .  S
C1289      C1290   1.418       .  A
C1290      N1291   1.438       .  S
N1291      H1295   1.044       .  S
N1291      H1296   1.046       .  S
N1294      H1297   1.046       .  S
N1294      H1298   1.045       .  S
C1299      C1300   1.407       .  A
C1299      C1304   1.420       .  A
C1299      H1306   1.084       .  S
C1300      C1301   1.408       .  A
C1301      C1302   1.411       .  A
C1301      N1308   1.432       .  S
C1302      C1303   1.410       .  A
C1302      H1307   1.084       .  S
C1303      C1304   1.418       .  A
C1304      N1305   1.436       .  S
N1305      H1309   1.047       .  S
N1305      H1310   1.044       .  S
N1308      H1311   1.045       .  S
N1308      H1312   1.046   1_545  S
C1313      C1314   1.404   1_545  A
C1313      C1318   1.415       .  A
C1313      H1320   1.084       .  S
C1314      C1315   1.423       .  A
C1315      C1316   1.414   1_565  A
C1315      N1322   1.438       .  S
C1316      C1317   1.408       .  A
C1316      H1321   1.083       .  S
C1317      C1318   1.421       .  A
C1318      N1319   1.432       .  S
N1319      H1323   1.046       .  S
N1319      H1324   1.046       .  S
N1322      H1325   1.046       .  S
N1322      H1326   1.044       .  S
C1327      C1328   1.402       .  A
C1327      C1332   1.404       .  A
C1327      H1334   1.084       .  S
C1328      C1329   1.414       .  A
C1329      C1330   1.407       .  A
C1329      N1336   1.438       .  S
C1330      C1331   1.407       .  A
C1330      H1335   1.083       .  S
C1331      C1332   1.416       .  A
C1332      N1333   1.432       .  S
N1333      H1337   1.046       .  S
N1333      H1338   1.045       .  S
N1336      H1339   1.040       .  S
N1336      H1340   1.051       .  S
C1341      C1342   1.403       .  A
C1341      C1346   1.399       .  A
C1341      H1348   1.082       .  S
C1342      C1343   1.415       .  A
C1343      C1344   1.406       .  A
C1343      N1350   1.432       .  S
C1344      C1345   1.404       .  A
C1344      H1349   1.084       .  S
C1345      C1346   1.404       .  A
C1346      N1347   1.433       .  S
N1347      H1351   1.044       .  S
N1347      H1352   1.045       .  S
N1350      H1353   1.046       .  S
N1350      H1354   1.045       .  S
C1355      C1356   1.396       .  A
C1355      C1360   1.384       .  A
C1355      H1362   1.083       .  S
C1356      C1357   1.403       .  A
C1357      C1358   1.398       .  A
C1357      N1364   1.437       .  S
C1358      C1359   1.405       .  A
C1358      H1363   1.084       .  S
C1359      C1360   1.407       .  A
C1360      N1361   1.434       .  S
N1361      H1365   1.046       .  S
N1361      H1366   1.045       .  S
N1364      H1367   1.046       .  S
N1364      H1368   1.045       .  S
C1369      C1370   1.396       .  A
C1369      C1374   1.402       .  A
C1369      H1376   1.084       .  S
C1370      C1371   1.412       .  A
C1371      C1372   1.410       .  A
C1371      N1378   1.437       .  S
C1372      C1373   1.402       .  A
C1372      H1377   1.084       .  S
C1373      C1374   1.418       .  A
C1374      N1375   1.439       .  S
N1375      H1379   1.045       .  S
N1375      H1380   1.046       .  S
N1378      H1381   1.044       .  S
N1378      H1382   1.047       .  S
C1383      C1384   1.404       .  A
C1383      C1388   1.406       .  A
C1383      H1390   1.084       .  S
C1384      C1385   1.420       .  A
C1385      C1386   1.422       .  A
C1385      N1392   1.437       .  S
C1386      C1387   1.405       .  A
C1386      H1391   1.083       .  S
C1387      C1388   1.423       .  A
C1388      N1389   1.434       .  S
N1389      H1393   1.044       .  S
N1389      H1394   1.045       .  S
N1392      H1395   1.046   1_455  S
N1392      H1396   1.046       .  S
C1397      C1398   1.405   1_455  A
C1397      C1402   1.418       .  A
C1397      H1404   1.083       .  S
C1398      C1399   1.418       .  A
C1399      C1400   1.409   1_655  A
C1399      N1406   1.438       .  S
C1400      C1401   1.404       .  A
C1400      H1405   1.083       .  S
C1401      C1402   1.420       .  A
C1402      N1403   1.433       .  S
N1403      H1407   1.046       .  S
N1403      H1408   1.043       .  S
N1406      H1409   1.046       .  S
N1406      H1410   1.045       .  S
C1411      C1412   1.409       .  A
C1411      C1416   1.405       .  A
C1411      H1418   1.083       .  S
C1412      C1413   1.412       .  A
C1413      C1414   1.398       .  A
C1413      N1420   1.433       .  S
C1414      C1415   1.406       .  A
C1414      H1419   1.084       .  S
C1415      C1416   1.411       .  A
C1416      N1417   1.432       .  S
N1417      H1421   1.045       .  S
N1417      H1422   1.046       .  S
N1420      H1423   1.046       .  S
N1420      H1424   1.045       .  S
C1425      C1426   1.410       .  A
C1425      C1430   1.409       .  A
C1425      H1432   1.084       .  S
C1426      C1427   1.416       .  A
C1427      C1428   1.406       .  A
C1427      N1434   1.438       .  S
C1428      C1429   1.403       .  A
C1428      H1433   1.084       .  S
C1429      C1430   1.411       .  A
C1430      N1431   1.432       .  S
N1431      H1435   1.046       .  S
N1431      H1436   1.046       .  S
N1434      H1437   1.045       .  S
N1434      H1438   1.045       .  S
C1439      C1440   1.409       .  A
C1439      C1444   1.397       .  A
C1439      H1446   1.084       .  S
C1440      C1441   1.404       .  A
C1441      C1442   1.403       .  A
C1441      N1448   1.432       .  S
C1442      C1443   1.411       .  A
C1442      H1447   1.084       .  S
C1443      C1444   1.412       .  A
C1444      N1445   1.433       .  S
N1445      H1449   1.045       .  S
N1445      H1450   1.045       .  S
N1448      H1451   1.046       .  S
N1448      H1452   1.045       .  S
C1453      C1454   1.411       .  A
C1453      C1458   1.408       .  A
C1453      H1460   1.084       .  S
C1454      C1455   1.413       .  A
C1455      C1456   1.420       .  A
C1455      N1462   1.431       .  S
C1456      C1457   1.411       .  A
C1456      H1461   1.084       .  S
C1457      C1458   1.417       .  A
C1458      N1459   1.439       .  S
N1459      H1463   1.046       .  S
N1459      H1464   1.044       .  S
N1462      H1465   1.045       .  S
N1462      H1466   1.046       .  S
C1467      C1468   1.413       .  A
C1467      C1472   1.411       .  A
C1467      H1474   1.084       .  S
C1468      C1469   1.418       .  A
C1469      C1470   1.409       .  A
C1469      N1476   1.432       .  S
C1470      C1471   1.410       .  A
C1470      H1475   1.085       .  S
C1471      C1472   1.415       .  A
C1472      N1473   1.438   1_455  S
N1473      H1477   1.046       .  S
N1473      H1478   1.043       .  S
N1476      H1479   1.045       .  S
N1476      H1480   1.045       .  S
C1481      C1482   1.405       .  A
C1481      C1486   1.403       .  A
C1481      H1488   1.084       .  S
C1482      C1483   1.413       .  A
C1483      C1484   1.403       .  A
C1483      N1490   1.432       .  S
C1484      C1485   1.405       .  A
C1484      H1489   1.084       .  S
C1485      C1486   1.413       .  A
C1486      N1487   1.433       .  S
N1487      H1491   1.046       .  S
N1487      H1492   1.046       .  S
N1490      H1493   1.045       .  S
N1490      H1494   1.046       .  S
C1495      C1496   1.399       .  A
C1495      C1500   1.401       .  A
C1495      H1502   1.084       .  S
C1496      C1497   1.415       .  A
C1497      C1498   1.405       .  A
C1497      N1504   1.433   1_455  S
C1498      C1499   1.401       .  A
C1498      H1503   1.084       .  S
C1499      C1500   1.421       .  A
C1500      N1501   1.439       .  S
N1501      H1505   1.046       .  S
N1501      H1506   1.044       .  S
N1504      H1507   1.046       .  S
N1504      H1508   1.045       .  S
C1509      C1510   1.411       .  A
C1509      C1514   1.392       .  A
C1509      H1516   1.084       .  S
C1510      C1511   1.406       .  A
C1511      C1512   1.391       .  A
C1511      N1518   1.435       .  S
C1512      C1513   1.397       .  A
C1512      H1517   1.085       .  S
C1513      C1514   1.395       .  A
C1514      N1515   1.439       .  S
N1515      H1519   1.045       .  S
N1515      H1520   1.046       .  S
N1518      H1521   1.044       .  S
N1518      H1522   1.046       .  S
C1523      C1524   1.406       .  A
C1523      C1528   1.408       .  A
C1523      H1530   1.084       .  S
C1524      C1525   1.404       .  A
C1525      C1526   1.407       .  A
C1525      N1532   1.437       .  S
C1526      C1527   1.411       .  A
C1526      H1531   1.084       .  S
C1527      C1528   1.408       .  A
C1528      N1529   1.432       .  S
N1529      H1533   1.047       .  S
N1529      H1534   1.042       .  S
N1532      H1535   1.046       .  S
N1532      H1536   1.045       .  S
