geometry optimzed in LAMMPS
_audit_creation_date              2020-12-01 
_audit_creation_method            'lammps2cif' 
_symmetry_space_group_name_H-M    'P1' 
_symmetry_Int_Tables_number       1 
_symmetry_cell_setting            triclinic 
loop_ 
_symmetry_equiv_pos_as_xyz 
  x,y,z 
_cell_length_a                    60.24359569 
_cell_length_b                    60.18534191717054 
_cell_length_c                    54.26010957075511 
_cell_angle_alpha                 90.03392830570867 
_cell_angle_beta                  90.01652337908338 
_cell_angle_gamma                 120.0008906607116 
loop_ 
_atom_site_label 
_atom_site_type_symbol 
_atom_site_fract_x 
_atom_site_fract_y 
_atom_site_fract_z 
_atom_site_charge 
N1          N  0.45897989  0.26592305  0.42657737    -0.26600
N2          N  0.46102526  0.27746647  0.40525595    -0.34400
C3          C  0.45988512  0.29891498  0.40924858     0.01800
C4          C  0.45694097  0.30106901  0.43422695     0.07800
C5          C  0.45648818  0.27985167  0.44472094    -0.05300
H6          H  0.46109659  0.31200021  0.39495345     0.08500
H7          H  0.45455881  0.27490952  0.46406995     0.09700
Cu8        Cu  0.46398037  0.26343455  0.37121510     0.44200
Cu9        Cu  0.45941884  0.23156946  0.42983888     0.42000
Cu10       Cu  0.46188810  0.20311124  0.37127235     0.43900
N11         N  0.46146864  0.24345483  0.33920715    -0.33900
N12         N  0.46056540  0.22106736  0.33922985    -0.28200
C13         C  0.45729325  0.21217343  0.31597779    -0.04300
C14         C  0.45596170  0.22980904  0.30061166     0.07900
C15         C  0.45872968  0.24942187  0.31594483     0.01700
H16         H  0.45537859  0.19394224  0.31077192     0.09400
H17         H  0.45823740  0.26650441  0.31069361     0.08400
N18         N  0.46102429  0.18729399  0.40538671    -0.35400
N19         N  0.45998516  0.19726302  0.42680295    -0.27600
C20         C  0.45920497  0.18164187  0.44503030    -0.02800
C21         C  0.45972962  0.16093880  0.43443057     0.05800
C22         C  0.46092440  0.16522945  0.40936081     0.03900
H23         H  0.45829265  0.18510041  0.46447003     0.09000
H24         H  0.46160510  0.15313182  0.39497306     0.07800
N25         N  0.71432816  0.52091734  0.42638704    -0.26600
N26         N  0.70573756  0.52481421  0.40531701    -0.34400
C27         C  0.68470584  0.52664317  0.40978308     0.01800
C28         C  0.67974604  0.52378748  0.43484186     0.07800
C29         C  0.69892013  0.52016022  0.44479440    -0.05300
H30         H  0.67374925  0.52972346  0.39577374     0.08500
H31         H  0.70150792  0.51718015  0.46399636     0.09700
Cu32       Cu  0.72286568  0.52729394  0.37126717     0.44200
Cu33       Cu  0.74699373  0.51721302  0.42902768     0.42000
Cu34       Cu  0.78072740  0.52292442  0.37148389     0.43900
N35         N  0.74254086  0.52818055  0.33934718    -0.33900
N36         N  0.76365038  0.52656281  0.33935507    -0.28200
C37         C  0.77114605  0.52701900  0.31586072    -0.04300
C38         C  0.75389821  0.52893453  0.30032214     0.07900
C39         C  0.73606355  0.52967390  0.31588767     0.01700
H40         H  0.78771802  0.52566279  0.31048919     0.09400
H41         H  0.71939251  0.53087773  0.31056742     0.08400
N42         N  0.79370176  0.51891898  0.40602996    -0.35400
N43         N  0.78124734  0.51635859  0.42688965    -0.27600
C44         C  0.79469996  0.51413425  0.44565761    -0.02800
C45         C  0.81675641  0.51554552  0.43620749     0.05800
C46         C  0.81544410  0.51857866  0.41104808     0.03900
H47         H  0.78899900  0.51201189  0.46480563     0.09000
H48         H  0.82929615  0.52037946  0.39735340     0.07800
N49         N  0.71524042  0.18924798  0.41952162    -0.26600
N50         N  0.70540888  0.17745415  0.39836443    -0.34400
C51         C  0.68410021  0.15485159  0.40290377     0.01800
C52         C  0.68021264  0.15227910  0.42813641     0.07800
C53         C  0.70025818  0.17447387  0.43807501    -0.05300
H54         H  0.67218667  0.14144289  0.38881746     0.08500
H55         H  0.70374810  0.17948135  0.45739841     0.09700
Cu56       Cu  0.72137227  0.19258948  0.36418266     0.44200
Cu57       Cu  0.74902361  0.22476998  0.42207971     0.42000
Cu58       Cu  0.78260438  0.25232964  0.36481431     0.43900
N59         N  0.74187002  0.21081922  0.33256278    -0.33900
N60         N  0.76426788  0.23234637  0.33274705    -0.28200
C61         C  0.77260161  0.23862134  0.30937031    -0.04300
C62         C  0.75460645  0.22018619  0.29376449     0.07900
C63         C  0.73536839  0.20289506  0.30910817     0.01700
H64         H  0.79047398  0.25535382  0.30415173     0.09400
H65         H  0.71799209  0.18569500  0.30367864     0.08400
N66         N  0.79629675  0.26930153  0.39923255    -0.35400
N67         N  0.78378226  0.25946195  0.42006207    -0.27600
C68         C  0.79727976  0.27509604  0.43883517    -0.02800
C69         C  0.81944180  0.29571942  0.42946180     0.05800
C70         C  0.81815057  0.29134774  0.40427856     0.03900
H71         H  0.79145916  0.27156585  0.45795263     0.09000
H72         H  0.83201278  0.30339966  0.39059424     0.07800
C73         C  0.93944907  0.44440623  0.50874616    -0.10100
C74         C  0.92757906  0.45847733  0.50242544    -0.04000
C75         C  0.93754728  0.48400006  0.50961527    -0.10100
C76         C  0.96030798  0.49621019  0.52384345     0.10800
C77         C  0.97260123  0.48220813  0.53078400    -0.01900
C78         C  0.96213900  0.45616092  0.52324802     0.10600
C79         C  0.97460629  0.44274126  0.53047470    -0.11900
C80         C  0.99687246  0.45455325  0.54488181    -0.11900
C81         C  0.00761225  0.48028782  0.55240418     0.10600
C82         C  0.99544063  0.49432634  0.54521345    -0.01900
C83         C  0.97111421  0.52196709  0.53125389    -0.12000
C84         C  0.99366275  0.53392323  0.54515976    -0.12000
C85         C  0.00613816  0.52051105  0.55233130     0.10800
C86         C  0.02911162  0.53250682  0.56632772    -0.10100
C87         C  0.04062893  0.51831606  0.57334004    -0.04000
C88         C  0.03026855  0.49254053  0.56683503    -0.10100
H89         H  0.96713466  0.42293551  0.52506582     0.08100
H90         H  0.00573099  0.44339080  0.55002039     0.08100
H91         H  0.96220130  0.53311437  0.52625318     0.08300
H92         H  0.00126477  0.55381257  0.55032520     0.08300
H93         H  0.91018401  0.44936749  0.49143295     0.04700
H94         H  0.05814915  0.52758808  0.58414226     0.04700
N95         N  0.51238498  0.72312047  0.65108087    -0.26600
N96         N  0.50884625  0.71103837  0.67232866    -0.34400
C97         C  0.50711441  0.68816578  0.66816514     0.01800
C98         C  0.50958802  0.68567107  0.64310977     0.07800
C99         C  0.51291797  0.70820435  0.63283676    -0.05300
H100        H  0.50408018  0.67428486  0.68233102     0.08500
H101        H  0.51538746  0.71335306  0.61352883     0.09700
Cu102      Cu  0.50671114  0.72630149  0.70607905     0.44200
Cu103      Cu  0.51531917  0.75895736  0.64786883     0.42000
Cu104      Cu  0.51183830  0.78878230  0.70513190     0.43900
N105        N  0.50856057  0.74669302  0.73771908    -0.33900
N106        N  0.51073123  0.76967250  0.73747352    -0.28200
C107        C  0.51274608  0.77805447  0.76085018    -0.04300
C108        C  0.51185587  0.75946262  0.77651796     0.07900
C109        C  0.50913536  0.73985331  0.76120939     0.01700
H110        H  0.51509008  0.79647383  0.76600254     0.09400
H111        H  0.50809395  0.72207785  0.76668121     0.08400
N112        N  0.51275099  0.80361498  0.67025537    -0.35400
N113        N  0.51419632  0.79293661  0.64944101    -0.27600
C114        C  0.51377849  0.80700955  0.63032905    -0.02800
C115        C  0.51200183  0.82750656  0.63958899     0.05800
C116        C  0.51141977  0.82474579  0.66492061     0.03900
H117        H  0.51442946  0.80245667  0.61114769     0.09000
H118        H  0.50982921  0.83703939  0.67850631     0.07800
N119        N  0.25327199  0.45699761  0.65141097    -0.26600
N120        N  0.26330644  0.45535306  0.67254639    -0.34400
C121        C  0.28502750  0.45485806  0.66788776     0.01800
C122        C  0.28884505  0.45626313  0.64263501     0.07800
C123        C  0.26831576  0.45756920  0.63278435    -0.05300
H124        H  0.29732008  0.45390186  0.68187430     0.08500
H125        H  0.26470768  0.45916618  0.61351833     0.09700
Cu126      Cu  0.24712945  0.45442936  0.70677115     0.44200
Cu127      Cu  0.21984109  0.45903440  0.64883732     0.42000
Cu128      Cu  0.18646062  0.45372688  0.70614719     0.43900
N129        N  0.22718083  0.45357706  0.73848398    -0.33900
N130        N  0.20501079  0.45315275  0.73828812    -0.28200
C131        C  0.19741575  0.45285753  0.76170051    -0.04300
C132        C  0.21566261  0.45308126  0.77737841     0.07900
C133        C  0.23423441  0.45352998  0.76201622     0.01700
H134        H  0.17994595  0.45258419  0.76688894     0.09400
H135        H  0.25167540  0.45389877  0.76750972     0.08400
N136        N  0.17334394  0.45741444  0.67176045    -0.35400
N137        N  0.18581845  0.46002264  0.65092482    -0.27600
C138        C  0.17272948  0.46288205  0.63223449    -0.02800
C139        C  0.15088777  0.46183271  0.64175856     0.05800
C140        C  0.15190561  0.45831894  0.66683856     0.03900
H141        H  0.17859713  0.46531756  0.61312415     0.09000
H142        H  0.13817806  0.45676727  0.68056175     0.07800
N143        N  0.25413259  0.79268128  0.64489849    -0.26600
N144        N  0.26365917  0.80575995  0.66555189    -0.34400
C145        C  0.28577121  0.82744573  0.66042011     0.01800
C146        C  0.29046593  0.82788595  0.63540727     0.07800
C147        C  0.27005389  0.80555122  0.62618551    -0.05300
H148        H  0.29772656  0.84162305  0.67395176     0.08500
H149        H  0.26684237  0.79917580  0.60720859     0.09700
Cu150      Cu  0.24678955  0.79274434  0.69992368     0.44200
Cu151      Cu  0.21963520  0.75804943  0.64251086     0.42000
Cu152      Cu  0.18634073  0.73206201  0.69943981     0.43900
N153        N  0.22748431  0.77319084  0.73162895    -0.33900
N154        N  0.20567925  0.75104728  0.73141888    -0.28200
C155        C  0.19875571  0.74313598  0.75480018    -0.04300
C156        C  0.21700927  0.76116146  0.77047976     0.07900
C157        C  0.23493583  0.77995658  0.75515872     0.01700
H158        H  0.18167480  0.72553976  0.75996793     0.09400
H159        H  0.25221836  0.79721221  0.76066568     0.08400
N160        N  0.17171043  0.71515871  0.66531945    -0.35400
N161        N  0.18421471  0.72433823  0.64438346    -0.27600
C162        C  0.17045142  0.70844905  0.62585373    -0.02800
C163        C  0.14813546  0.68836346  0.63560381     0.05800
C164        C  0.14958551  0.69333338  0.66064983     0.03900
H165        H  0.17635422  0.71124191  0.60674611     0.09000
H166        H  0.13585190  0.68159057  0.67456260     0.07800
C167        C  0.52914608  0.03688849  0.50437758    -0.10100
C168        C  0.51470979  0.04774231  0.49619150    -0.04000
C169        C  0.48877318  0.03703840  0.50211308    -0.10100
C170        C  0.47653972  0.01441448  0.51645184     0.10800
C171        C  0.49090124  0.00297235  0.52475281    -0.01900
C172        C  0.51738792  0.01439450  0.51892075     0.10600
C173        C  0.53128895  0.00295322  0.52764177    -0.11900
C174        C  0.51936141  0.98045607  0.54155894    -0.11900
C175        C  0.49308592  0.96853083  0.54708086     0.10600
C176        C  0.47870675  0.97994067  0.53872119    -0.01900
C177        C  0.45033260  0.00267858  0.52231030    -0.12000
C178        C  0.43835063  0.98004283  0.53603148    -0.12000
C179        C  0.45216532  0.96837634  0.54436925     0.10800
C180        C  0.44023626  0.94534188  0.55811326    -0.10100
C181        C  0.45457295  0.93428077  0.56592647    -0.04000
C182        C  0.48070725  0.94557238  0.56090831    -0.10100
H183        H  0.55152826  0.01131557  0.52369539     0.08100
H184        H  0.53085187  0.97233053  0.54782452     0.08100
H185        H  0.43884944  0.01085908  0.51617691     0.08300
H186        H  0.41810782  0.97164825  0.53998423     0.08300
H187        H  0.52390262  0.06497572  0.48498607     0.04700
H188        H  0.44526796  0.91670981  0.57665473     0.04700
C189        C  0.48846590  0.45371036  0.50478663    -0.10100
C190        C  0.51397693  0.46962338  0.49775568    -0.04000
C191        C  0.52832636  0.49495958  0.50599820    -0.10100
C192        C  0.51670803  0.50509980  0.52166677     0.10800
C193        C  0.49067344  0.48922791  0.52887609    -0.01900
C194        C  0.47658252  0.46335086  0.52060782     0.10600
C195        C  0.45090885  0.44801098  0.52798370    -0.11900
C196        C  0.43918805  0.45778243  0.54326639    -0.11900
C197        C  0.45267649  0.48327765  0.55163814     0.10600
C198        C  0.47866268  0.49924127  0.54434081    -0.01900
C199        C  0.53019859  0.53059669  0.53012594    -0.12000
C200        C  0.51840640  0.54042853  0.54535663    -0.12000
C201        C  0.49270304  0.52511308  0.55266988     0.10800
C202        C  0.48063927  0.53466304  0.56846361    -0.10100
C203        C  0.45517042  0.51861780  0.57546024    -0.04000
C204        C  0.44106969  0.49324814  0.56741921    -0.10100
H205        H  0.43964102  0.42827559  0.52194539     0.08100
H206        H  0.41940553  0.44518291  0.54849595     0.08100
H207        H  0.55000824  0.54315053  0.52495496     0.08300
H208        H  0.52960602  0.56015957  0.55143592     0.08300
H209        H  0.52297702  0.46201210  0.48571796     0.04700
H210        H  0.44607933  0.52605790  0.58759813     0.04700
N211        N  0.72208572  0.53335626  0.14570032    -0.26600
N212        N  0.71064474  0.53211946  0.16690016    -0.34400
C213        C  0.68858975  0.53191118  0.16231077     0.01800
C214        C  0.68587606  0.53299141  0.13708832     0.07800
C215        C  0.70747008  0.53386109  0.12708754    -0.05300
H216        H  0.67530222  0.53074815  0.17634999     0.08500
H217        H  0.71217293  0.53466517  0.10774776     0.09700
Cu218      Cu  0.72495994  0.53043946  0.20150845     0.44200
Cu219      Cu  0.75694146  0.53389193  0.14319317     0.42000
Cu220      Cu  0.78420730  0.52992127  0.20200565     0.43900
N221        N  0.74323554  0.52966020  0.23396100    -0.33900
N222        N  0.76502438  0.52935338  0.23403766    -0.28200
C223        C  0.77214624  0.52906526  0.25751477    -0.04300
C224        C  0.75400575  0.52925644  0.27304701     0.07900
C225        C  0.73594006  0.52963103  0.25745495     0.01700
H226        H  0.78933575  0.52884701  0.26285444     0.09400
H227        H  0.71875809  0.52986604  0.26277745     0.08400
N228        N  0.80079656  0.53165501  0.16795284    -0.35400
N229        N  0.79106581  0.53308627  0.14653587    -0.27600
C230        C  0.80642192  0.53339931  0.12829568    -0.02800
C231        C  0.82675981  0.53217122  0.13879885     0.05800
C232        C  0.82254896  0.53111834  0.16391477     0.03900
H233        H  0.80287852  0.53419831  0.10886005     0.09000
H234        H  0.83424356  0.52965476  0.17824256     0.07800
N235        N  0.44244630  0.26010270  0.14850610    -0.26600
N236        N  0.44112278  0.26920085  0.17033898    -0.34400
C237        C  0.44129972  0.29144982  0.16734505     0.01800
C238        C  0.44289477  0.29686389  0.14244969     0.07800
C239        C  0.44353698  0.27656240  0.13100923    -0.05300
H240        H  0.44112669  0.30320892  0.18234402     0.08500
H241        H  0.44538766  0.27429811  0.11146709     0.09700
Cu242      Cu  0.44147782  0.25297661  0.20387627     0.44200
Cu243      Cu  0.44393458  0.22621475  0.14391105     0.42000
Cu244      Cu  0.44588770  0.19656569  0.20232520     0.43900
N245        N  0.44558649  0.23611491  0.23547686    -0.33900
N246        N  0.44722585  0.21505100  0.23495822    -0.28200
C247        C  0.45080998  0.20928851  0.25804534    -0.04300
C248        C  0.45160834  0.22777909  0.27379962     0.07900
C249        C  0.44818695  0.24445825  0.25886840     0.01700
H250        H  0.45319454  0.19317285  0.26289074     0.09400
H251        H  0.44799061  0.26160340  0.26449271     0.08400
N252        N  0.44526513  0.18144024  0.16785951    -0.35400
N253        N  0.44481392  0.19184555  0.14651267    -0.27600
C254        C  0.44508511  0.17678030  0.12816193    -0.02800
C255        C  0.44566267  0.15601069  0.13858408     0.05800
C256        C  0.44575502  0.15970469  0.16373018     0.03900
H257        H  0.44504836  0.18073145  0.10871828     0.09000
H258        H  0.44646269  0.14766098  0.17813430     0.07800
N259        N  0.71905835  0.18713807  0.13989256    -0.26600
N260        N  0.70946330  0.17566327  0.16122270    -0.34400
C261        C  0.68690680  0.15417005  0.15723685     0.01800
C262        C  0.68185083  0.15186663  0.13225316     0.07800
C263        C  0.70263239  0.17312300  0.12175323    -0.05300
H264        H  0.67485112  0.14133777  0.17158677     0.08500
H265        H  0.70551972  0.17815029  0.10241835     0.09700
Cu266      Cu  0.72636970  0.18964791  0.19534123     0.44200
Cu267      Cu  0.75405510  0.22161047  0.13681958     0.42000
Cu268      Cu  0.78710071  0.24696171  0.19567325     0.43900
N269        N  0.74541109  0.20755340  0.22765680    -0.33900
N270        N  0.76803658  0.22872593  0.22778159    -0.28200
C271        C  0.77495925  0.23632892  0.25124664    -0.04300
C272        C  0.75569917  0.21910114  0.26664146     0.07900
C273        C  0.73728374  0.20107549  0.25104358     0.01700
H274        H  0.79246524  0.25340976  0.25663790     0.09400
H275        H  0.71910400  0.18473441  0.25624721     0.08400
N276        N  0.80107414  0.26443330  0.16183512    -0.35400
N277        N  0.78932639  0.25571236  0.14042591    -0.27600
C278        C  0.80342420  0.27260304  0.12264440    -0.02800
C279        C  0.82492533  0.29281863  0.13349738     0.05800
C280        C  0.82272959  0.28692496  0.15827847     0.03900
H281        H  0.79815149  0.27055316  0.10337093     0.09000
H282        H  0.83571518  0.29841317  0.17281598     0.07800
C283        C  0.94276352  0.45224617  0.06973525    -0.10100
C284        C  0.93306702  0.46781424  0.07767754    -0.04000
C285        C  0.94360230  0.49321790  0.06982223    -0.10100
C286        C  0.96499294  0.50381624  0.05379781     0.10800
C287        C  0.97550627  0.48844966  0.04596735    -0.01900
C288        C  0.96417248  0.46246117  0.05373247     0.08200
C289        C  0.97483345  0.44760784  0.04567423    -0.11900
C290        C  0.99642193  0.45809935  0.03048996    -0.11900
C291        C  0.00806589  0.48379171  0.02273801     0.10600
C292        C  0.99744936  0.49911668  0.03042333    -0.01900
C293        C  0.97638969  0.52939040  0.04573335    -0.12000
C294        C  0.99781723  0.53980910  0.03033914    -0.12000
C295        C  0.00871192  0.52507396  0.02256310     0.10800
C296        C  0.03026983  0.53533656  0.00673044    -0.10100
C297        C  0.04030443  0.51991670  0.99923634    -0.04000
C298        C  0.02985321  0.49456422  0.00721662    -0.10100
H299        H  0.96665095  0.42776188  0.05123119     0.08100
H300        H  0.00392947  0.44588304  0.02481098     0.08100
H301        H  0.96883305  0.54158264  0.05134828     0.08300
H302        H  0.00580565  0.55956506  0.02457095     0.08300
H303        H  0.91661007  0.45981755  0.08990701     0.04700
H304        H  0.05687904  0.52794994  0.98715391     0.04700
N305        N  0.51731351  0.72564478  0.93002026    -0.26600
N306        N  0.51819844  0.71636602  0.90814415    -0.34400
C307        C  0.51955255  0.69493543  0.91113592     0.01800
C308        C  0.51944437  0.69022120  0.93606305     0.07800
C309        C  0.51799163  0.71006556  0.94755526    -0.05300
H310        H  0.52009579  0.68339293  0.89611744     0.08500
H311        H  0.51719610  0.71280775  0.96717448     0.09700
Cu312      Cu  0.51689396  0.73189446  0.87446798     0.44200
Cu313      Cu  0.51510738  0.75912175  0.93452709     0.42000
Cu314      Cu  0.51852586  0.79094045  0.87538284     0.43900
N315        N  0.51609799  0.75012455  0.84238585    -0.33900
N316        N  0.51713179  0.77254769  0.84263012    -0.28200
C317        C  0.51600255  0.77954160  0.81929355    -0.04300
C318        C  0.51405548  0.76044877  0.80363209     0.07900
C319        C  0.51420303  0.74211509  0.81893237     0.01700
H320        H  0.51618848  0.79700032  0.81417050     0.09400
H321        H  0.51285124  0.72419117  0.81347269     0.08400
N322        N  0.51652780  0.80490908  0.90974924    -0.35400
N323        N  0.51470279  0.79365688  0.93121302    -0.27600
C324        C  0.51292905  0.80822631  0.94922662    -0.02800
C325        C  0.51384888  0.82959033  0.93846189     0.05800
C326        C  0.51610954  0.82672202  0.91349051     0.03900
H327        H  0.51114888  0.80364450  0.96866242     0.09000
H328        H  0.51707145  0.83940182  0.89889425     0.07800
N329        N  0.25104264  0.45119138  0.93064219    -0.26600
N330        N  0.26079124  0.45054050  0.90897673    -0.34400
C331        C  0.28289951  0.45056762  0.91246956     0.01800
C332        C  0.28740459  0.45125317  0.93749192     0.07800
C333        C  0.26681349  0.45160751  0.94851704    -0.05300
H334        H  0.29507696  0.45060648  0.89779869     0.08500
H335        H  0.26378349  0.45266803  0.96802993     0.09700
Cu336      Cu  0.24473623  0.45080309  0.87524371     0.44200
Cu337      Cu  0.21724110  0.45263691  0.93467282     0.42000
Cu338      Cu  0.18704008  0.45362409  0.87632355     0.43900
N339        N  0.22630538  0.45203770  0.84344305    -0.33900
N340        N  0.20489042  0.45303237  0.84368842    -0.28200
C341        C  0.19770859  0.45357654  0.82026983    -0.04300
C342        C  0.21554042  0.45292016  0.80458836     0.07900
C343        C  0.23338842  0.45197514  0.81994899     0.01700
H344        H  0.18080442  0.45441016  0.81507549     0.09400
H345        H  0.25026521  0.45122093  0.81449046     0.08400
N346        N  0.17263145  0.45437759  0.91099023    -0.35400
N347        N  0.18342965  0.45430603  0.93222665    -0.27600
C348        C  0.16907633  0.45541577  0.95078739    -0.02800
C349        C  0.14826453  0.45607624  0.94065105     0.05800
C350        C  0.15120449  0.45537326  0.91546663     0.03900
H351        H  0.17347364  0.45571479  0.97015929     0.09000
H352        H  0.13876146  0.45581391  0.90133380     0.07800
N353        N  0.24814570  0.79682559  0.92462504    -0.26600
N354        N  0.25851604  0.80766331  0.90326968    -0.34400
C355        C  0.28016131  0.83003156  0.90744466     0.01800
C356        C  0.28380430  0.83351889  0.93258805     0.07800
C357        C  0.26314091  0.81210055  0.94297399    -0.05300
H358        H  0.29267308  0.84256083  0.89315831     0.08500
H359        H  0.25944832  0.80774335  0.96238890     0.09700
Cu360      Cu  0.24411742  0.79150058  0.86901993     0.44200
Cu361      Cu  0.21435514  0.76133922  0.92763346     0.42000
Cu362      Cu  0.18725703  0.73016819  0.86856909     0.43900
N363        N  0.22714306  0.77182292  0.83673225    -0.33900
N364        N  0.20604960  0.74912163  0.83651888    -0.28200
C365        C  0.19936361  0.74165218  0.81298340    -0.04300
C366        C  0.21713949  0.76060925  0.79766437     0.07900
C367        C  0.23451917  0.77941445  0.81336654     0.01700
H368        H  0.18261960  0.72390820  0.80746414     0.09400
H369        H  0.25105829  0.79747967  0.80822583     0.08400
N370        N  0.17116195  0.71479753  0.90265143    -0.35400
N371        N  0.18070640  0.72579244  0.92418670    -0.27600
C372        C  0.16536523  0.71033505  0.94226767    -0.02800
C373        C  0.14527100  0.68869093  0.93153800     0.05800
C374        C  0.14964777  0.69224617  0.90643497     0.03900
H375        H  0.16867647  0.71446804  0.96176211     0.09000
H376        H  0.13815514  0.67931424  0.89187004     0.07800
C377        C  0.48324176  0.03964848  0.06484675    -0.10100
C378        C  0.50820793  0.04878403  0.07345888    -0.04000
C379        C  0.52270044  0.03764060  0.06624006    -0.10100
C380        C  0.51168723  0.01596264  0.05055643     0.10800
C381        C  0.48623549  0.00622893  0.04177556    -0.01900
C382        C  0.47204638  0.01832972  0.04864135     0.10600
C383        C  0.44696937  0.00843295  0.03957214    -0.11900
C384        C  0.43592392  0.98696660  0.02413831    -0.11900
C385        C  0.44949188  0.97452121  0.01736064     0.10600
C386        C  0.47490256  0.98423669  0.02625131    -0.01900
C387        C  0.52527341  0.00355622  0.04373427    -0.12000
C388        C  0.51405987  0.98183076  0.02871931    -0.12000
C389        C  0.48893322  0.97185848  0.01981797     0.10800
C390        C  0.47746692  0.94995421  0.00444023    -0.10100
C391        C  0.45268948  0.94095883  0.99547122    -0.04000
C392        C  0.43847215  0.95266079  0.00184569    -0.10100
H393        H  0.43563872  0.01717723  0.04443072     0.08100
H394        H  0.41658666  0.98011314  0.01758912     0.08100
H395        H  0.54464838  0.01043603  0.05018087     0.08300
H396        H  0.52528971  0.97291406  0.02407434     0.08300
H397        H  0.51673603  0.06525452  0.08571321     0.04700
H398        H  0.44404149  0.92408842  0.98372497     0.04700
C399        C  0.53018008  0.49497339  0.06879316    -0.10100
C400        C  0.51504497  0.47018164  0.07820292    -0.04000
C401        C  0.48950303  0.45461893  0.07107679    -0.10100
C402        C  0.47824828  0.46423065  0.05441504     0.10800
C403        C  0.49312188  0.48959128  0.04512254    -0.01900
C404        C  0.51924964  0.50498501  0.05219512     0.10600
C405        C  0.53351256  0.53006590  0.04288850    -0.11900
C406        C  0.52232229  0.54000733  0.02711673    -0.11900
C407        C  0.49655127  0.52512324  0.01984650     0.10600
C408        C  0.48183316  0.49958532  0.02874246    -0.01900
C409        C  0.45247533  0.44935557  0.04710361    -0.12000
C410        C  0.44152062  0.45902690  0.03073552    -0.12000
C411        C  0.45584677  0.48403746  0.02129730     0.10800
C412        C  0.44513099  0.49386422  0.00424307    -0.10100
C413        C  0.45997421  0.51900405  0.99561857    -0.04000
C414        C  0.48514200  0.53489239  0.00357992    -0.10100
H415        H  0.55343212  0.54228867  0.04791215     0.08100
H416        H  0.53411912  0.55943560  0.02046566     0.08100
H417        H  0.44053601  0.43005596  0.05399823     0.08300
H418        H  0.42168024  0.44670951  0.02550921     0.08300
H419        H  0.52352692  0.46260104  0.09091220     0.04700
H420        H  0.45148894  0.52663128  0.98296284     0.04700
C421        C  0.34125403  0.88860122  0.94957459     0.30500
C422        C  0.36503553  0.91078043  0.94545772    -0.35800
C423        C  0.38078548  0.92140337  0.96622236     0.16500
C424        C  0.37361049  0.91095419  0.98948600     0.22300
C425        C  0.34968044  0.88893656  0.99364085    -0.34000
C426        C  0.33395622  0.87826031  0.97285474     0.16400
O427        O  0.32441401  0.87453992  0.93253079    -0.26000
C428        C  0.30599547  0.85494511  0.94501340     0.06200
C429        C  0.31087268  0.85629797  0.97021314    -0.30900
O430        O  0.39241448  0.92215186  0.00566330    -0.22700
C431        C  0.41179850  0.94022852  0.99271113    -0.02700
C432        C  0.40566101  0.94058722  0.96804765    -0.17100
H433        H  0.37129320  0.91855327  0.92715274     0.20900
H434        H  0.34420182  0.88005661  0.01162967     0.19300
H435        H  0.29956662  0.84262023  0.98436066     0.19200
H436        H  0.41840281  0.95174974  0.95323559     0.15100
C437        C  0.37939037  0.46653717  0.99230872     0.30500
C438        C  0.35440910  0.46165339  0.99714997    -0.35800
C439        C  0.33870728  0.45738959  0.97646601     0.16500
C440        C  0.34695176  0.45764877  0.95268450     0.22300
C441        C  0.37173755  0.46216570  0.94786594    -0.34000
C442        C  0.38746603  0.46664027  0.96848061     0.16400
O443        O  0.39822762  0.47416397  0.00850177    -0.26000
C444        C  0.41854343  0.47902834  0.99484850     0.06200
C445        C  0.41290573  0.47463109  0.96985769    -0.30900
O446        O  0.32985746  0.45499600  0.93602254    -0.22700
C447        C  0.31033046  0.45301351  0.94921787    -0.02700
C448        C  0.31472316  0.45429691  0.97451972    -0.17100
H449        H  0.34808955  0.46241424  0.01564379     0.20900
H450        H  0.37868915  0.46333283  0.92924547     0.19300
H451        H  0.42616155  0.47889822  0.95474043     0.19200
H452        H  0.30243961  0.45391346  0.98925953     0.15100
C453        C  0.50622850  0.87289262  0.97643231     0.30500
C454        C  0.49994758  0.88180824  0.99783242    -0.35800
C455        C  0.49847085  0.90430560  0.99517770     0.16500
C456        C  0.50283024  0.91704829  0.97298470     0.22300
C457        C  0.50946689  0.90839552  0.95180606    -0.34000
C458        C  0.51087463  0.88599742  0.95445157     0.16400
O459        O  0.50704621  0.85140477  0.97410475    -0.26000
C460        C  0.51227344  0.85088203  0.95029773     0.06200
C461        C  0.51491966  0.87199161  0.93731487    -0.30900
O462        O  0.49766074  0.93587296  0.97382036    -0.22700
C463        C  0.49035532  0.93563884  0.99696321    -0.02700
C464        C  0.49043943  0.91639833  0.01113954    -0.17100
H465        H  0.49553022  0.87140554  0.01506553     0.20900
H466        H  0.51221923  0.91784359  0.93418046     0.19300
H467        H  0.51857455  0.87613049  0.91785655     0.19200
H468        H  0.48352796  0.91083984  0.02979574     0.15100
C469        C  0.51504503  0.64047820  0.97361889     0.30500
C470        C  0.51026343  0.62601076  0.99531228    -0.35800
C471        C  0.50759937  0.60155853  0.99256305     0.16500
C472        C  0.50935776  0.59195616  0.96998775     0.22300
C473        C  0.51460706  0.60657649  0.94842313    -0.34000
C474        C  0.51731007  0.63097691  0.95118934     0.16400
O475        O  0.51616469  0.66291560  0.97153849    -0.26000
C476        C  0.51922972  0.66781628  0.94745039     0.06200
C477        C  0.52024524  0.64864965  0.93397993    -0.30900
O478        O  0.50328220  0.56766748  0.97113865    -0.22700
C479        C  0.49815375  0.56173332  0.99485494    -0.02700
C480        C  0.50047759  0.58205018  0.00906143    -0.17100
H481        H  0.50771416  0.63288406  0.01292697     0.20900
H482        H  0.51533987  0.59898359  0.93054256     0.19300
H483        H  0.52179134  0.64734255  0.91422644     0.19200
H484        H  0.49550077  0.58175434  0.02827076     0.15100
C485        C  0.06098153  0.59024746  0.97000368     0.30500
C486        C  0.07037657  0.60316574  0.94761115    -0.35800
C487        C  0.09086217  0.62838164  0.94922144     0.16500
C488        C  0.10145940  0.64028872  0.97134347     0.22300
C489        C  0.09171246  0.62746895  0.99388311    -0.34000
C490        C  0.07113981  0.60209067  0.99227880     0.16400
O491        O  0.04402788  0.56570108  0.97242839    -0.26000
C492        C  0.04277051  0.56166560  0.99660232     0.06200
C493        C  0.05923825  0.58363262  0.00993600    -0.30900
O494        O  0.12178196  0.66333754  0.96827637    -0.22700
C495        C  0.12410411  0.66612708  0.94386166    -0.02700
C496        C  0.10528208  0.64498355  0.93117202    -0.17100
H497        H  0.06300975  0.59376858  0.93005957     0.20900
H498        H  0.10026582  0.63625754  0.01136420     0.19300
H499        H  0.06342521  0.58515985  0.02946501     0.19200
H500        H  0.10304601  0.64185681  0.91146768     0.15100
C501        C  0.07190180  0.47125556  0.99651224     0.30500
C502        C  0.09375482  0.46910297  0.00111591    -0.35800
C503        C  0.10436340  0.46343031  0.98062300     0.16500
C504        C  0.09405896  0.46003795  0.95727754     0.22300
C505        C  0.07208846  0.46183567  0.95275258    -0.34000
C506        C  0.06157102  0.46757019  0.97314982     0.16400
O507        O  0.06068297  0.47931651  0.01223805    -0.26000
C508        C  0.04277052  0.48049634  0.99881676     0.06200
C509        C  0.04251419  0.47344276  0.97437770    -0.30900
O510        O  0.10788746  0.45664369  0.94048834    -0.22700
C511        C  0.12734750  0.45774033  0.95311171    -0.02700
C512        C  0.12613719  0.46183793  0.97824590    -0.17100
H513        H  0.10253990  0.47273947  0.01917442     0.20900
H514        H  0.06437141  0.45998623  0.93436228     0.19300
H515        H  0.03140103  0.47465882  0.95929620     0.19200
H516        H  0.13974957  0.46421963  0.99247723     0.15100
C517        C  0.62235261  0.09878787  0.11620124     0.30500
C518        C  0.59823137  0.07718959  0.12073224    -0.35800
C519        C  0.58155382  0.06752094  0.10047293     0.16500
C520        C  0.58821810  0.07825574  0.07726931     0.22300
C521        C  0.61248019  0.09966189  0.07267821    -0.34000
C522        C  0.62909630  0.10945738  0.09299117     0.16400
O523        O  0.64012381  0.11199857  0.13284274    -0.26000
C524        C  0.65857430  0.13140180  0.12018322     0.06200
C525        C  0.65278466  0.13075258  0.09525278    -0.30900
O526        O  0.56881741  0.06785896  0.06165089    -0.22700
C527        C  0.54953807  0.05009001  0.07493618    -0.02700
C528        C  0.55633353  0.04905590  0.09923091    -0.17100
H529        H  0.59245935  0.06917024  0.13902490     0.20900
H530        H  0.61761397  0.10875550  0.05476372     0.19300
H531        H  0.66397216  0.14443425  0.08106415     0.19200
H532        H  0.54396005  0.03773723  0.11419078     0.15100
C533        C  0.87760069  0.35312445  0.11922983     0.30500
C534        C  0.89851291  0.37746814  0.12449913    -0.35800
C535        C  0.90974007  0.39383033  0.10427874     0.16500
C536        C  0.90111648  0.38673092  0.08042031     0.22300
C537        C  0.88024541  0.36227087  0.07513589    -0.34000
C538        C  0.86886255  0.34593457  0.09542341     0.16400
O539        O  0.86354038  0.33535420  0.13551922    -0.26000
C540        C  0.84545124  0.31646336  0.12207089     0.06200
C541        C  0.84779588  0.32197244  0.09695795    -0.30900
O542        O  0.91295049  0.40588565  0.06467435    -0.22700
C543        C  0.92946723  0.42542215  0.07862120    -0.02700
C544        C  0.92823787  0.41901735  0.10340070    -0.17100
H545        H  0.90501490  0.38355254  0.14319205     0.20900
H546        H  0.87279393  0.35671916  0.05662183     0.19300
H547        H  0.83552603  0.31026725  0.08209693     0.19200
H548        H  0.93819432  0.43163926  0.11873085     0.15100
C549        C  0.45885945  0.07097104  0.10043347     0.30500
C550        C  0.45444993  0.07999568  0.12264507    -0.35800
C551        C  0.45066203  0.10107480  0.12087332     0.16500
C552        C  0.45108688  0.11260663  0.09877752     0.22300
C553        C  0.45510593  0.10327374  0.07639839    -0.34000
C554        C  0.45892864  0.08207679  0.07815863     0.16400
O555        O  0.46567942  0.05340310  0.09831683    -0.26000
C556        C  0.46971961  0.05271622  0.07431477     0.06200
C557        C  0.46583943  0.07017204  0.06080667    -0.30900
O558        O  0.44888887  0.13326177  0.10179143    -0.22700
C559        C  0.44700809  0.13484299  0.12614718    -0.02700
C560        C  0.44788978  0.11521595  0.13883281    -0.17100
H561        H  0.45508121  0.07185629  0.14023874     0.20900
H562        H  0.45621025  0.11251323  0.05897255     0.19300
H563        H  0.46971127  0.07489387  0.04146032     0.19200
H564        H  0.44745855  0.11224142  0.15853278     0.15100
C565        C  0.46326179  0.39864066  0.10689478     0.30500
C566        C  0.45736509  0.38448583  0.12886765    -0.35800
C567        C  0.45195159  0.35901159  0.12663803     0.16500
C568        C  0.45233691  0.34816331  0.10434443     0.22300
C569        C  0.45776798  0.36218617  0.08230942    -0.34000
C570        C  0.46309304  0.38764560  0.08450967     0.16400
O571        O  0.47132637  0.42339693  0.10501136    -0.26000
C572        C  0.47582529  0.42821371  0.08103074     0.06200
C573        C  0.47107646  0.40670375  0.06739020    -0.30900
O574        O  0.44862692  0.32469587  0.10677898    -0.22700
C575        C  0.44571145  0.32039483  0.13095245    -0.02700
C576        C  0.44743744  0.34105631  0.14417319    -0.17100
H577        H  0.45796572  0.39304321  0.14658706     0.20900
H578        H  0.45871089  0.35411024  0.06477975     0.19300
H579        H  0.47476409  0.40574706  0.04800995     0.19200
H580        H  0.44657605  0.34300818  0.16392517     0.15100
C581        C  0.90321241  0.51815214  0.08206958     0.30500
C582        C  0.88207224  0.52154160  0.07772156    -0.35800
C583        C  0.87128015  0.52636317  0.09858223     0.16500
C584        C  0.88072616  0.52783326  0.12206816     0.22300
C585        C  0.90203152  0.52482930  0.12636345    -0.34000
C586        C  0.91273379  0.51992962  0.10557687     0.16400
O587        O  0.91430270  0.51046662  0.06581039    -0.26000
C588        C  0.93130910  0.50757727  0.07906218     0.06200
C589        C  0.93112256  0.51318387  0.10388904    -0.30900
O590        O  0.86665458  0.53055480  0.13909305    -0.22700
C591        C  0.84793764  0.53095379  0.12643650    -0.02700
C592        C  0.84988553  0.52853251  0.10110565    -0.17100
H593        H  0.87386078  0.51935713  0.05952124     0.20900
H594        H  0.90905396  0.52511797  0.14479717     0.19300
H595        H  0.94145114  0.51045541  0.11881409     0.19200
H596        H  0.83688902  0.52747287  0.08677692     0.15100
C597        C  0.62843629  0.53025209  0.11970170     0.30500
C598        C  0.60439368  0.52783948  0.12399523    -0.35800
C599        C  0.58858651  0.52263384  0.10334242     0.16500
C600        C  0.59587367  0.52005631  0.07988809     0.22300
C601        C  0.62026388  0.52300741  0.07548409    -0.34000
C602        C  0.63609847  0.52808323  0.09628698     0.16400
O603        O  0.64509514  0.53278006  0.13678757    -0.26000
C604        C  0.66388857  0.53236940  0.12432503     0.06200
C605        C  0.65943322  0.52963976  0.09897059    -0.30900
O606        O  0.57674353  0.51189423  0.06392008    -0.22700
C607        C  0.55712387  0.50950119  0.07735676    -0.02700
C608        C  0.56347932  0.51597505  0.10194948    -0.17100
H609        H  0.59791119  0.52860935  0.14241547     0.20900
H610        H  0.62594420  0.52015763  0.05736586     0.19300
H611        H  0.67107725  0.52786827  0.08478066     0.19200
H612        H  0.55075715  0.51376913  0.11701404     0.15100
C613        C  0.37729032  0.89975063  0.57217439     0.30500
C614        C  0.35577338  0.87501805  0.57130542    -0.35800
C615        C  0.34003066  0.86722960  0.59224277     0.16500
C616        C  0.34513954  0.88261550  0.61275158     0.22300
C617        C  0.36646701  0.90752822  0.61347241    -0.34000
C618        C  0.38211685  0.91542485  0.59241583     0.16400
O619        O  0.39619263  0.90953926  0.55605741    -0.26000
C620        C  0.41312019  0.93207130  0.56574075     0.06200
C621        C  0.40533966  0.93674289  0.58834768    -0.30900
O622        O  0.32855755  0.87089532  0.63074713    -0.22700
C623        C  0.31247737  0.84779721  0.62150954    -0.02700
C624        C  0.31870876  0.84447991  0.59762272    -0.17100
H625        H  0.35212935  0.86233043  0.55578546     0.20900
H626        H  0.37103909  0.91958185  0.62964910     0.19300
H627        H  0.41650577  0.95217051  0.60115394     0.19200
H628        H  0.30920257  0.82758477  0.58607370     0.15100
C629        C  0.37639842  0.46876725  0.58172162     0.30500
C630        C  0.35216480  0.46649759  0.57869628    -0.35800
C631        C  0.33747873  0.46178904  0.60021386     0.16500
C632        C  0.34600629  0.45940956  0.62313186     0.22300
C633        C  0.37004404  0.46132581  0.62610274    -0.34000
C634        C  0.38470555  0.46602121  0.60462579     0.16400
O635        O  0.39454608  0.47641523  0.56479489    -0.26000
C636        C  0.41459081  0.47817017  0.57693234     0.06200
C637        C  0.40949721  0.47191870  0.60175089    -0.30900
O638        O  0.32995309  0.45676528  0.64096176    -0.22700
C639        C  0.31079051  0.45737403  0.62935928    -0.02700
C640        C  0.31442286  0.46039420  0.60395510    -0.17100
H641        H  0.34571721  0.46941854  0.56100498     0.20900
H642        H  0.37728885  0.46033434  0.64408550     0.19300
H643        H  0.42296622  0.47407811  0.61605945     0.19200
H644        H  0.30226573  0.46213838  0.59032762     0.15100
C645        C  0.50222264  0.90341227  0.57730227     0.30500
C646        C  0.50471189  0.88152088  0.57450125    -0.35800
C647        C  0.50755651  0.87065666  0.59636575     0.16500
C648        C  0.50788943  0.88065782  0.61934874     0.22300
C649        C  0.50566029  0.90260773  0.62211992    -0.34000
C650        C  0.50293887  0.91349706  0.60033523     0.16400
O651        O  0.49650718  0.91495861  0.55976267    -0.26000
C652        C  0.49401357  0.93292586  0.57172263     0.06200
C653        C  0.49778474  0.93283425  0.59697283    -0.30900
O654        O  0.50957218  0.86691465  0.63737691    -0.22700
C655        C  0.51046312  0.84784831  0.62590112    -0.02700
C656        C  0.50928161  0.84916577  0.60032763    -0.17100
H657        H  0.50356176  0.87301159  0.55662611     0.20900
H658        H  0.50524935  0.91020149  0.64009997     0.19300
H659        H  0.49466517  0.94377226  0.61101221     0.19200
H660        H  0.50924074  0.83600291  0.58670715     0.15100
C661        C  0.50580432  0.62779590  0.62504892     0.30500
C662        C  0.50348977  0.60363477  0.62855486    -0.35800
C663        C  0.50130390  0.58962895  0.60712089     0.16500
C664        C  0.50115141  0.59858735  0.58375288     0.22300
C665        C  0.50364888  0.62289467  0.58023678    -0.34000
C666        C  0.50601764  0.63701476  0.60171784     0.16400
O667        O  0.50713545  0.64363359  0.64257308    -0.26000
C668        C  0.50838442  0.66340587  0.63037454     0.06200
C669        C  0.50778538  0.66034968  0.60487999    -0.30900
O670        O  0.49613527  0.58111412  0.56653392    -0.22700
C671        C  0.49346175  0.56085990  0.57903001    -0.02700
C672        C  0.49645682  0.56514593  0.60432958    -0.17100
H673        H  0.50271526  0.59596777  0.64677744     0.20900
H674        H  0.50296750  0.62996183  0.56207611     0.19300
H675        H  0.50808449  0.67319111  0.59076338     0.19200
H676        H  0.49312270  0.55135200  0.61870445     0.15100
C677        C  0.09623824  0.46338356  0.62154850     0.30500
C678        C  0.07221433  0.46168318  0.62388446    -0.35800
C679        C  0.06289956  0.46789570  0.60281013     0.16500
C680        C  0.07640846  0.47550903  0.58097683     0.22300
C681        C  0.10034761  0.47698865  0.57857890    -0.34000
C682        C  0.10958017  0.47060092  0.59960995     0.16400
O683        O  0.10892527  0.45935604  0.63917325    -0.26000
C684        C  0.13063655  0.46386883  0.62837864     0.06200
C685        C  0.13208492  0.47092408  0.60373454    -0.30900
O686        O  0.06544297  0.48310005  0.56451677    -0.22700
C687        C  0.04432372  0.47978975  0.57570777    -0.02700
C688        C  0.04185139  0.47048485  0.59962012    -0.17100
H689        H  0.06183228  0.45657151  0.64115072     0.20900
H690        H  0.11138840  0.48347429  0.56173046     0.19300
H691        H  0.14763214  0.47601044  0.59088098     0.19200
H692        H  0.02787723  0.46828807  0.61336759     0.15100
C693        C  0.07412791  0.59696525  0.57769906     0.30500
C694        C  0.09791966  0.61953398  0.57469365    -0.35800
C695        C  0.10676086  0.63646663  0.59486670     0.16500
C696        C  0.09318231  0.63147749  0.61658157     0.22300
C697        C  0.06925144  0.60906751  0.61947811    -0.34000
C698        C  0.06033336  0.59219766  0.59925215     0.16400
O699        O  0.06367470  0.57732279  0.56229953    -0.26000
C700        C  0.04257313  0.55987780  0.57383032     0.06200
C701        C  0.03961032  0.56809990  0.59695974    -0.30900
O702        O  0.10573291  0.64910964  0.63359851    -0.22700
C703        C  0.12759562  0.66577993  0.62262412    -0.02700
C704        C  0.12923465  0.65890661  0.59845163    -0.17100
H705        H  0.10921846  0.62317127  0.55811793     0.20900
H706        H  0.05872734  0.60465406  0.63663850     0.19300
H707        H  0.02558734  0.55699568  0.61093384     0.19200
H708        H  0.14502188  0.66857110  0.58567228     0.15100
C709        C  0.87487810  0.35092925  0.45123405     0.30500
C710        C  0.89923327  0.37312661  0.44972887    -0.35800
C711        C  0.90848968  0.38782594  0.47142464     0.16500
C712        C  0.89461486  0.38125825  0.49304619     0.22300
C713        C  0.87040916  0.35896193  0.49460314    -0.34000
C714        C  0.86124515  0.34421295  0.47299902     0.16400
O715        O  0.86211389  0.33492586  0.43301727    -0.26000
C716        C  0.84004939  0.31760118  0.44329790     0.06200
C717        C  0.83851669  0.32249101  0.46815297    -0.30900
O718        O  0.90529626  0.39929108  0.51009495    -0.22700
C719        C  0.92667356  0.41755330  0.49959840    -0.02700
C720        C  0.92955791  0.41139042  0.47547101    -0.17100
H721        H  0.90987252  0.37898208  0.43261882     0.20900
H722        H  0.85905651  0.35396683  0.51127612     0.19300
H723        H  0.82276505  0.31183098  0.48074621     0.19200
H724        H  0.94357078  0.42374637  0.46201762     0.15100
C725        C  0.58641310  0.06523461  0.47112826     0.30500
C726        C  0.60080442  0.07164008  0.44928049    -0.35800
C727        C  0.62403165  0.09503697  0.44940796     0.16500
C728        C  0.63273779  0.11089982  0.46976406     0.22300
C729        C  0.61854677  0.10428548  0.49175865    -0.34000
C730        C  0.59516486  0.08101482  0.49155132     0.16400
O731        O  0.56265303  0.04623766  0.47382599    -0.26000
C732        C  0.55618885  0.04959315  0.49639706     0.06200
C733        C  0.57565169  0.07096795  0.50826676    -0.30900
O734        O  0.65393629  0.13277889  0.46520663    -0.22700
C735        C  0.65882900  0.13099755  0.44157864    -0.02700
C736        C  0.64088761  0.10786344  0.43085014    -0.17100
H737        H  0.59366598  0.05993208  0.43285488     0.20900
H738        H  0.62464917  0.11705447  0.50749650     0.19300
H739        H  0.57459955  0.07927771  0.52561624     0.19200
H740        H  0.63987935  0.10177220  0.41191069     0.15100
C741        C  0.89171957  0.50193153  0.49654461     0.30500
C742        C  0.86795877  0.50083333  0.49923232    -0.35800
C743        C  0.85877178  0.50765070  0.47841046     0.16500
C744        C  0.87202348  0.51496381  0.45642783     0.22300
C745        C  0.89592684  0.51642659  0.45386105    -0.34000
C746        C  0.90515377  0.50972306  0.47468085     0.16400
O747        O  0.90249951  0.49373618  0.51263814    -0.26000
C748        C  0.92340770  0.49683336  0.50114423     0.06200
C749        C  0.92594022  0.50662165  0.47744835    -0.30900
O750        O  0.85919080  0.51890165  0.43886380    -0.22700
C751        C  0.83744040  0.51423470  0.44970625    -0.02700
C752        C  0.83618711  0.50725321  0.47437682    -0.17100
H753        H  0.85692142  0.49414632  0.51606805     0.20900
H754        H  0.90619239  0.52153425  0.43653073     0.19300
H755        H  0.93979900  0.50887059  0.46354811     0.19200
H756        H  0.82058086  0.50187490  0.48722840     0.15100
C757        C  0.59286974  0.51624976  0.49378432     0.30500
C758        C  0.61594921  0.51612174  0.49728325    -0.35800
C759        C  0.63128907  0.52073974  0.47625200     0.16500
C760        C  0.62447877  0.52533360  0.45334675     0.22300
C761        C  0.60161644  0.52585403  0.44991839    -0.34000
C762        C  0.58623893  0.52114548  0.47091822     0.16400
O763        O  0.57412198  0.50887839  0.51002849    -0.26000
C764        C  0.55533709  0.50944600  0.49757917     0.06200
C765        C  0.56188116  0.51693141  0.47314467    -0.30900
O766        O  0.64070623  0.52736795  0.43591192    -0.22700
C767        C  0.65823558  0.52408308  0.44775377    -0.02700
C768        C  0.65336313  0.51995836  0.47293276    -0.17100
H769        H  0.62095232  0.51140904  0.51490955     0.20900
H770        H  0.59563044  0.52852471  0.43187941     0.19300
H771        H  0.54945150  0.51651450  0.45851982     0.19200
H772        H  0.66405136  0.51611677  0.48665268     0.15100
C773        C  0.46118709  0.10521856  0.44992755     0.30500
C774        C  0.46407566  0.08393484  0.44512698    -0.35800
C775        C  0.46636246  0.07129331  0.46578100     0.16500
C776        C  0.46574545  0.07893983  0.48964101     0.22300
C777        C  0.46244258  0.10008456  0.49446190    -0.34000
C778        C  0.46033727  0.11289962  0.47371292     0.16400
O779        O  0.46067833  0.12083443  0.43325943    -0.26000
C780        C  0.45946775  0.13884946  0.44639766     0.06200
C781        C  0.45911013  0.13490123  0.47172850    -0.30900
O782        O  0.47146480  0.06629739  0.50598517    -0.22700
C783        C  0.47552209  0.05023658  0.49237674    -0.02700
C784        C  0.47258352  0.05252664  0.46727687    -0.17100
H785        H  0.46568409  0.07837207  0.42652859     0.20900
H786        H  0.46282211  0.10686221  0.51302532     0.19300
H787        H  0.45884696  0.14689442  0.48646325     0.19200
H788        H  0.47681972  0.04338354  0.45225854     0.15100
C789        C  0.46370406  0.38849506  0.49105197     0.30500
C790        C  0.45924815  0.36352897  0.49535259    -0.35800
C791        C  0.45655209  0.34873425  0.47428985     0.16500
C792        C  0.45785499  0.35782966  0.45067631     0.22300
C793        C  0.46176676  0.38248935  0.44640001    -0.34000
C794        C  0.46475446  0.39732506  0.46736359     0.16400
O795        O  0.47012771  0.40674162  0.50774897    -0.26000
C796        C  0.47515048  0.42738959  0.49451764     0.06200
C797        C  0.47210253  0.42259127  0.46933668    -0.30900
O798        O  0.45735904  0.34194986  0.43368031    -0.22700
C799        C  0.45571502  0.32232445  0.44643697    -0.02700
C800        C  0.45493127  0.32536588  0.47182693    -0.17100
H801        H  0.45938575  0.35667508  0.51375874     0.20900
H802        H  0.46383800  0.39012879  0.42795473     0.19300
H803        H  0.47673419  0.43630150  0.45456308     0.19200
H804        H  0.45462258  0.31287586  0.48632684     0.15100
loop_ 
_geom_bond_atom_site_label_1 
_geom_bond_atom_site_label_2 
_geom_bond_distance 
_geom_bond_site_symmetry_2 
_ccdc_geom_bond_type 
N1            N2   1.324       .  A
N1            C5   1.349       .  A
N1           Cu9   2.089       .  S
N2            C3   1.344       .  A
N2           Cu8   2.075       .  S
C3            C4   1.381       .  A
C3            H6   1.082       .  S
C4            C5   1.386       .  A
C4          C799   1.475       .  S
C5            H7   1.082       .  S
Cu8          N11   2.074       .  S
Cu9          N19   2.088       .  S
Cu10         N12   2.070       .  S
Cu10         N18   2.071       .  S
N11          N12   1.321       .  A
N11          C15   1.345       .  A
N12          C13   1.346       .  A
C13          C14   1.384       .  A
C13          H16   1.082       .  S
C14          C15   1.384       .  A
C14         C248   1.472       .  S
C15          H17   1.082       .  S
N18          N19   1.323       .  A
N18          C22   1.343       .  A
N19          C20   1.350       .  A
C20          C21   1.387       .  A
C20          H23   1.082       .  S
C21          C22   1.380       .  A
C21         C780   1.473       .  S
C22          H24   1.082       .  S
N25          N26   1.323       .  A
N25          C29   1.349       .  A
N25         Cu33   2.093       .  S
N26          C27   1.348       .  A
N26         Cu32   2.085       .  S
C27          C28   1.384       .  A
C27          H30   1.082       .  S
C28          C29   1.388       .  A
C28         C767   1.481       .  S
C29          H31   1.082       .  S
Cu32         N35   2.085       .  S
Cu33         N43   2.093       .  S
Cu34         N36   2.090       .  S
Cu34         N42   2.091       .  S
N35          N36   1.323       .  A
N35          C39   1.347       .  A
N36          C37   1.348       .  A
C37          C38   1.387       .  A
C37          H40   1.082       .  S
C38          C39   1.385       .  A
C38         C224   1.480       .  S
C39          H41   1.082       .  S
N42          N43   1.324       .  A
N42          C46   1.348       .  A
N43          C44   1.349       .  A
C44          C45   1.387       .  A
C44          H47   1.082       .  S
C45          C46   1.385       .  A
C45         C751   1.481       .  S
C46          H48   1.082       .  S
N49          N50   1.323       .  A
N49          C53   1.348       .  A
N49         Cu57   2.093       .  S
N50          C51   1.347       .  A
N50         Cu56   2.079       .  S
C51          C52   1.385       .  A
C51          H54   1.082       .  S
C52          C53   1.385       .  A
C52         C735   1.478       .  S
C53          H55   1.082       .  S
Cu56         N59   2.079       .  S
Cu57         N67   2.094       .  S
Cu58         N60   2.089       .  S
Cu58         N66   2.089       .  S
N59          N60   1.323       .  A
N59          C63   1.346       .  A
N60          C61   1.347       .  A
C61          C62   1.385       .  A
C61          H64   1.082       .  S
C62          C63   1.384       .  A
C62         C272   1.476       .  S
C63          H65   1.082       .  S
N66          N67   1.323       .  A
N66          C70   1.350       .  A
N67          C68   1.348       .  A
C68          C69   1.388       .  A
C68          H71   1.082       .  S
C69          C70   1.386       .  A
C69         C716   1.484       .  S
C70          H72   1.082       .  S
C73          C74   1.397       .  A
C73          C78   1.421       .  A
C73         C719   1.485       .  S
C74          C75   1.396       .  A
C74          H93   1.086       .  S
C75          C76   1.417       .  A
C75         C748   1.480       .  S
C76          C77   1.423       .  A
C76          C83   1.407       .  A
C77          C78   1.426       .  A
C77          C82   1.426       .  A
C78          C79   1.406       .  A
C79          C80   1.400       .  A
C79          H89   1.083       .  S
C80          C81   1.408   1_655  A
C80          H90   1.083   1_655  S
C81          C82   1.423   1_455  A
C81          C88   1.418       .  A
C82          C85   1.425   1_655  A
C83          C84   1.398       .  A
C83          H91   1.083       .  S
C84          C85   1.405   1_655  A
C84          H92   1.083   1_655  S
C85          C86   1.419       .  A
C86          C87   1.396       .  A
C86         C700   1.483       .  S
C87          C88   1.397       .  A
C87          H94   1.086       .  S
C88         C687   1.479       .  S
N95          N96   1.323       .  A
N95          C99   1.347       .  A
N95        Cu103   2.082       .  S
N96          C97   1.346       .  A
N96        Cu102   2.081       .  S
C97          C98   1.384       .  A
C97         H100   1.082       .  S
C98          C99   1.385       .  A
C98         C668   1.477       .  S
C99         H101   1.082       .  S
Cu102       N105   2.080       .  S
Cu103       N113   2.081       .  S
Cu104       N106   2.081       .  S
Cu104       N112   2.082       .  S
N105        N106   1.323       .  A
N105        C109   1.345       .  A
N106        C107   1.348       .  A
C107        C108   1.385       .  A
C107        H110   1.082       .  S
C108        C109   1.384       .  A
C108        C318   1.476       .  S
C109        H111   1.082       .  S
N112        N113   1.323       .  A
N112        C116   1.345       .  A
N113        C114   1.348       .  A
C114        C115   1.385       .  A
C114        H117   1.082       .  S
C115        C116   1.383       .  A
C115        C655   1.474       .  S
C116        H118   1.082       .  S
N119        N120   1.323       .  A
N119        C123   1.347       .  A
N119       Cu127   2.083       .  S
N120        C121   1.348       .  A
N120       Cu126   2.085       .  S
C121        C122   1.385       .  A
C121        H124   1.082       .  S
C122        C123   1.385       .  A
C122        C639   1.478       .  S
C123        H125   1.082       .  S
Cu126       N129   2.085       .  S
Cu127       N137   2.083       .  S
Cu128       N130   2.081       .  S
Cu128       N136   2.081       .  S
N129        N130   1.323       .  A
N129        C133   1.346       .  A
N130        C131   1.347       .  A
C131        C132   1.385       .  A
C131        H134   1.082       .  S
C132        C133   1.385       .  A
C132        C342   1.476       .  S
C133        H135   1.082       .  S
N136        N137   1.323       .  A
N136        C140   1.346       .  A
N137        C138   1.347       .  A
C138        C139   1.386       .  A
C138        H141   1.082       .  S
C139        C140   1.383       .  A
C139        C684   1.476       .  S
C140        H142   1.082       .  S
N143        N144   1.324       .  A
N143        C147   1.345       .  A
N143       Cu151   2.085       .  S
N144        C145   1.348       .  A
N144       Cu150   2.081       .  S
C145        C146   1.384       .  A
C145        H148   1.082       .  S
C146        C147   1.384       .  A
C146        C623   1.475       .  S
C147        H149   1.082       .  S
Cu150       N153   2.081       .  S
Cu151       N161   2.086       .  S
Cu152       N154   2.083       .  S
Cu152       N160   2.083       .  S
N153        N154   1.323       .  A
N153        C157   1.347       .  A
N154        C155   1.346       .  A
C155        C156   1.384       .  A
C155        H158   1.082       .  S
C156        C157   1.385       .  A
C156        C366   1.476       .  S
C157        H159   1.082       .  S
N160        N161   1.322       .  A
N160        C164   1.347       .  A
N161        C162   1.348       .  A
C162        C163   1.387       .  A
C162        H165   1.082       .  S
C163        C164   1.385       .  A
C163        C703   1.480       .  S
C164        H166   1.082       .  S
C167        C168   1.396       .  A
C167        C172   1.414       .  A
C167        C732   1.477       .  S
C168        C169   1.398       .  A
C168        H187   1.086       .  S
C169        C170   1.414       .  A
C169        C783   1.477       .  S
C170        C171   1.422       .  A
C170        C177   1.406       .  A
C171        C172   1.422       .  A
C171        C176   1.421   1_545  A
C172        C173   1.406       .  A
C173        C174   1.396   1_545  A
C173        H183   1.083       .  S
C174        C175   1.405       .  A
C174        H184   1.083       .  S
C175        C176   1.422       .  A
C175        C182   1.414       .  A
C176        C179   1.422       .  A
C177        C178   1.396   1_545  A
C177        H185   1.083       .  S
C178        C179   1.405       .  A
C178        H186   1.083       .  S
C179        C180   1.414       .  A
C180        C181   1.394       .  A
C180        C620   1.474       .  S
C181        C182   1.395       .  A
C181        H188   1.086       .  S
C182        C652   1.475       .  S
C189        C190   1.398       .  A
C189        C194   1.415       .  A
C189        C796   1.480       .  S
C190        C191   1.398       .  A
C190        H209   1.086       .  S
C191        C192   1.418       .  A
C191        C764   1.483       .  S
C192        C193   1.424       .  A
C192        C199   1.406       .  A
C193        C194   1.423       .  A
C193        C198   1.424       .  A
C194        C195   1.406       .  A
C195        C196   1.395       .  A
C195        H205   1.083       .  S
C196        C197   1.405       .  A
C196        H206   1.083       .  S
C197        C198   1.424       .  A
C197        C204   1.415       .  A
C198        C201   1.423       .  A
C199        C200   1.399       .  A
C199        H207   1.083       .  S
C200        C201   1.407       .  A
C200        H208   1.083       .  S
C201        C202   1.418       .  A
C202        C203   1.396       .  A
C202        C671   1.481       .  S
C203        C204   1.395       .  A
C203        H210   1.086       .  S
C204        C636   1.479       .  S
N211        N212   1.324       .  A
N211        C215   1.350       .  A
N211       Cu219   2.088       .  S
N212        C213   1.346       .  A
N212       Cu218   2.090       .  S
C213        C214   1.384       .  A
C213        H216   1.082       .  S
C214        C215   1.386       .  A
C214        C604   1.478       .  S
C215        H217   1.082       .  S
Cu218       N221   2.089       .  S
Cu219       N229   2.088       .  S
Cu220       N222   2.078       .  S
Cu220       N228   2.079       .  S
N221        N222   1.322       .  A
N221        C225   1.348       .  A
N222        C223   1.347       .  A
C223        C224   1.385       .  A
C223        H226   1.082       .  S
C224        C225   1.387       .  A
C225        H227   1.082       .  S
N228        N229   1.324       .  A
N228        C232   1.345       .  A
N229        C230   1.349       .  A
C230        C231   1.386       .  A
C230        H233   1.082       .  S
C231        C232   1.382       .  A
C231        C591   1.475       .  S
C232        H234   1.082       .  S
N235        N236   1.324       .  A
N235        C239   1.350       .  A
N235       Cu243   2.101       .  S
N236        C237   1.344       .  A
N236       Cu242   2.071       .  S
C237        C238   1.382       .  A
C237        H240   1.082       .  S
C238        C239   1.388       .  A
C238        C575   1.478       .  S
C239        H241   1.082       .  S
Cu242       N245   2.070       .  S
Cu243       N253   2.100       .  S
Cu244       N246   2.071       .  S
Cu244       N252   2.072       .  S
N245        N246   1.320       .  A
N245        C249   1.345       .  A
N246        C247   1.346       .  A
C247        C248   1.384       .  A
C247        H250   1.082       .  S
C248        C249   1.384       .  A
C249        H251   1.082       .  S
N252        N253   1.324       .  A
N252        C256   1.342       .  A
N253        C254   1.352       .  A
C254        C255   1.388       .  A
C254        H257   1.082       .  S
C255        C256   1.382       .  A
C255        C559   1.479       .  S
C256        H258   1.081       .  S
N259        N260   1.324       .  A
N259        C263   1.350       .  A
N259       Cu267   2.098       .  S
N260        C261   1.345       .  A
N260       Cu266   2.077       .  S
C261        C262   1.381       .  A
C261        H264   1.082       .  S
C262        C263   1.389       .  A
C262        C524   1.478       .  S
C263        H265   1.082       .  S
Cu266       N269   2.077       .  S
Cu267       N277   2.099       .  S
Cu268       N270   2.074       .  S
Cu268       N276   2.074       .  S
N269        N270   1.321       .  A
N269        C273   1.346       .  A
N270        C271   1.346       .  A
C271        C272   1.385       .  A
C271        H274   1.082       .  S
C272        C273   1.385       .  A
C273        H275   1.082       .  S
N276        N277   1.324       .  A
N276        C280   1.344       .  A
N277        C278   1.351       .  A
C278        C279   1.388       .  A
C278        H281   1.082       .  S
C279        C280   1.380       .  A
C279        C540   1.477       .  S
C280        H282   1.082       .  S
C283        C284   1.397       .  A
C283        C288   1.416       .  A
C283        C543   1.479       .  S
C284        C285   1.397       .  A
C284        H303   1.086       .  S
C285        C286   1.415       .  A
C285        C588   1.479       .  S
C286        C287   1.422       .  A
C286        C293   1.406       .  A
C287        C288   1.422       .  A
C287        C292   1.423       .  A
C288        C289   1.406       .  A
C289        C290   1.396       .  A
C289        H299   1.083       .  S
C290        C291   1.406   1_655  A
C290        H300   1.083   1_655  S
C291        C292   1.422   1_455  A
C291        C298   1.415       .  A
C292        C295   1.423   1_655  A
C293        C294   1.396       .  A
C293        H301   1.083       .  S
C294        C295   1.406   1_655  A
C294        H302   1.082   1_655  S
C295        C296   1.416       .  A
C296        C297   1.397   1_554  A
C296        C492   1.479   1_554  S
C297        C298   1.397   1_556  A
C297        H304   1.086       .  S
C298        C508   1.479   1_554  S
N305        N306   1.324       .  A
N305        C309   1.351       .  A
N305       Cu313   2.099       .  S
N306        C307   1.342       .  A
N306       Cu312   2.072       .  S
C307        C308   1.381       .  A
C307        H310   1.082       .  S
C308        C309   1.388       .  A
C308        C476   1.478       .  S
C309        H311   1.082       .  S
Cu312       N315   2.072       .  S
Cu313       N323   2.099       .  S
Cu314       N316   2.073       .  S
Cu314       N322   2.073       .  S
N315        N316   1.320       .  A
N315        C319   1.345       .  A
N316        C317   1.347       .  A
C317        C318   1.386       .  A
C317        H320   1.082       .  S
C318        C319   1.385       .  A
C319        H321   1.082       .  S
N322        N323   1.324       .  A
N322        C326   1.341       .  A
N323        C324   1.352       .  A
C324        C325   1.388       .  A
C324        H327   1.082       .  S
C325        C326   1.381       .  A
C325        C460   1.478       .  S
C326        H328   1.081       .  S
N329        N330   1.324       .  A
N329        C333   1.349       .  A
N329       Cu337   2.093       .  S
N330        C331   1.344       .  A
N330       Cu336   2.074       .  S
C331        C332   1.381       .  A
C331        H334   1.082       .  S
C332        C333   1.387       .  A
C332        C447   1.475       .  S
C333        H335   1.082       .  S
Cu336       N339   2.073       .  S
Cu337       N347   2.093       .  S
Cu338       N340   2.082       .  S
Cu338       N346   2.082       .  S
N339        N340   1.321       .  A
N339        C343   1.345       .  A
N340        C341   1.348       .  A
C341        C342   1.387       .  A
C341        H344   1.082       .  S
C342        C343   1.384       .  A
C343        H345   1.082       .  S
N346        N347   1.324       .  A
N346        C350   1.344       .  A
N347        C348   1.351       .  A
C348        C349   1.388       .  A
C348        H351   1.082       .  S
C349        C350   1.381       .  A
C349        C511   1.477       .  S
C350        H352   1.082       .  S
N353        N354   1.324       .  A
N353        C357   1.349       .  A
N353       Cu361   2.094       .  S
N354        C355   1.345       .  A
N354       Cu360   2.075       .  S
C355        C356   1.381       .  A
C355        H358   1.082       .  S
C356        C357   1.388       .  A
C356        C428   1.476       .  S
C357        H359   1.082       .  S
Cu360       N363   2.074       .  S
Cu361       N371   2.094       .  S
Cu362       N364   2.078       .  S
Cu362       N370   2.079       .  S
N363        N364   1.321       .  A
N363        C367   1.346       .  A
N364        C365   1.347       .  A
C365        C366   1.385       .  A
C365        H368   1.082       .  S
C366        C367   1.384       .  A
C367        H369   1.082       .  S
N370        N371   1.324       .  A
N370        C374   1.344       .  A
N371        C372   1.351       .  A
C372        C373   1.387       .  A
C372        H375   1.082       .  S
C373        C374   1.384       .  A
C373        C495   1.479       .  S
C374        H376   1.082       .  S
C377        C378   1.398       .  A
C377        C382   1.417       .  A
C377        C556   1.479       .  S
C378        C379   1.397       .  A
C378        H397   1.086       .  S
C379        C380   1.414       .  A
C379        C527   1.478       .  S
C380        C381   1.422       .  A
C380        C387   1.406       .  A
C381        C382   1.422       .  A
C381        C386   1.422   1_545  A
C382        C383   1.407       .  A
C383        C384   1.397   1_545  A
C383        H393   1.082       .  S
C384        C385   1.406       .  A
C384        H394   1.083       .  S
C385        C386   1.422       .  A
C385        C392   1.416       .  A
C386        C389   1.422       .  A
C387        C388   1.395   1_545  A
C387        H395   1.083       .  S
C388        C389   1.406       .  A
C388        H396   1.083       .  S
C389        C390   1.414       .  A
C390        C391   1.396   1_554  A
C390        C463   1.476   1_554  S
C391        C392   1.397   1_556  A
C391        H398   1.086       .  S
C392        C431   1.478   1_554  S
C399        C400   1.400       .  A
C399        C404   1.416       .  A
C399        C607   1.482       .  S
C400        C401   1.397       .  A
C400        H419   1.085       .  S
C401        C402   1.416       .  A
C401        C572   1.479       .  S
C402        C403   1.421       .  A
C402        C409   1.407       .  A
C403        C404   1.423       .  A
C403        C408   1.423       .  A
C404        C405   1.406       .  A
C405        C406   1.396       .  A
C405        H415   1.083       .  S
C406        C407   1.406       .  A
C406        H416   1.083       .  S
C407        C408   1.421       .  A
C407        C414   1.415       .  A
C408        C411   1.423       .  A
C409        C410   1.396       .  A
C409        H417   1.082       .  S
C410        C411   1.405       .  A
C410        H418   1.083       .  S
C411        C412   1.416       .  A
C412        C413   1.399   1_554  A
C412        C444   1.480   1_554  S
C413        C414   1.396   1_556  A
C413        H420   1.086       .  S
C414        C479   1.477   1_554  S
C421        C426   1.380       .  A
C421        C422   1.404       .  A
C421        O427   1.319       .  A
C422        C423   1.404       .  A
C422        H433   1.083       .  S
C423        C432   1.363       .  A
C423        C424   1.380       .  A
C424        C425   1.405       .  A
C424        O430   1.320   1_556  A
C425        C426   1.404       .  A
C425        H434   1.082   1_556  S
C426        C429   1.365       .  A
O427        C428   1.332       .  A
C428        C429   1.392       .  A
C429        H435   1.082       .  S
O430        C431   1.331   1_554  A
C431        C432   1.391       .  A
C432        H436   1.082       .  S
C437        C442   1.380       .  A
C437        C438   1.407       .  A
C437        O443   1.322   1_556  A
C438        C439   1.406       .  A
C438        H449   1.082   1_556  S
C439        C448   1.365       .  A
C439        C440   1.380       .  A
C440        C441   1.402       .  A
C440        O446   1.318       .  A
C441        C442   1.402       .  A
C441        H450   1.083       .  S
C442        C445   1.360       .  A
O443        C444   1.332   1_554  A
C444        C445   1.391       .  A
C445        H451   1.083       .  S
O446        C447   1.331       .  A
C447        C448   1.393       .  A
C448        H452   1.082       .  S
C453        C458   1.380       .  A
C453        C454   1.408       .  A
C453        O459   1.325       .  A
C454        C455   1.408       .  A
C454        H465   1.082   1_556  S
C455        C464   1.366   1_556  A
C455        C456   1.381       .  A
C456        C457   1.400       .  A
C456        O462   1.317       .  A
C457        C458   1.400       .  A
C457        H466   1.083       .  S
C458        C461   1.356       .  A
O459        C460   1.334       .  A
C460        C461   1.391       .  A
C461        H467   1.082       .  S
O462        C463   1.328       .  A
C463        C464   1.393   1_556  A
C464        H468   1.082       .  S
C469        C474   1.380       .  A
C469        C470   1.406       .  A
C469        O475   1.323       .  A
C470        C471   1.406       .  A
C470        H481   1.082   1_556  S
C471        C480   1.364   1_556  A
C471        C472   1.381       .  A
C472        C473   1.402       .  A
C472        O478   1.319       .  A
C473        C474   1.402       .  A
C473        H482   1.082       .  S
C474        C477   1.359       .  A
O475        C476   1.332       .  A
C476        C477   1.392       .  A
C477        H483   1.082       .  S
O478        C479   1.330       .  A
C479        C480   1.392   1_556  A
C480        H484   1.082       .  S
C485        C490   1.380       .  A
C485        C486   1.401       .  A
C485        O491   1.317       .  A
C486        C487   1.400       .  A
C486        H497   1.083       .  S
C487        C496   1.359       .  A
C487        C488   1.379       .  A
C488        C489   1.409       .  A
C488        O494   1.324       .  A
C489        C490   1.408       .  A
C489        H498   1.082   1_556  S
C490        C493   1.368   1_556  A
O491        C492   1.329       .  A
C492        C493   1.394   1_556  A
C493        H499   1.082       .  S
O494        C495   1.334       .  A
C495        C496   1.391       .  A
C496        H500   1.082       .  S
C501        C506   1.380       .  A
C501        C502   1.408   1_556  A
C501        O507   1.322   1_556  A
C502        C503   1.407   1_554  A
C502        H513   1.082       .  S
C503        C512   1.368       .  A
C503        C504   1.380       .  A
C504        C505   1.402       .  A
C504        O510   1.318       .  A
C505        C506   1.401       .  A
C505        H514   1.083       .  S
C506        C509   1.361       .  A
O507        C508   1.333   1_554  A
C508        C509   1.390       .  A
C509        H515   1.083       .  S
O510        C511   1.330       .  A
C511        C512   1.394       .  A
C512        H516   1.082       .  S
C517        C522   1.380       .  A
C517        C518   1.405       .  A
C517        O523   1.319       .  A
C518        C519   1.404       .  A
C518        H529   1.083       .  S
C519        C528   1.364       .  A
C519        C520   1.380       .  A
C520        C521   1.406       .  A
C520        O526   1.320       .  A
C521        C522   1.405       .  A
C521        H530   1.082       .  S
C522        C525   1.366       .  A
O523        C524   1.332       .  A
C524        C525   1.393       .  A
C525        H531   1.082       .  S
O526        C527   1.331       .  A
C527        C528   1.391       .  A
C528        H532   1.082       .  S
C533        C538   1.380       .  A
C533        C534   1.403       .  A
C533        O539   1.318       .  A
C534        C535   1.402       .  A
C534        H545   1.083       .  S
C535        C544   1.361       .  A
C535        C536   1.380       .  A
C536        C537   1.407       .  A
C536        O542   1.322       .  A
C537        C538   1.406       .  A
C537        H546   1.082       .  S
C538        C541   1.367       .  A
O539        C540   1.331       .  A
C540        C541   1.393       .  A
C541        H547   1.082       .  S
O542        C543   1.332       .  A
C543        C544   1.391       .  A
C544        H548   1.083       .  S
C549        C554   1.380       .  A
C549        C550   1.401       .  A
C549        O555   1.317       .  A
C550        C551   1.400       .  A
C550        H561   1.083       .  S
C551        C560   1.358       .  A
C551        C552   1.379       .  A
C552        C553   1.409       .  A
C552        O558   1.324       .  A
C553        C554   1.408       .  A
C553        H562   1.082       .  S
C554        C557   1.368       .  A
O555        C556   1.329       .  A
C556        C557   1.394       .  A
C557        H563   1.082       .  S
O558        C559   1.334       .  A
C559        C560   1.391       .  A
C560        H564   1.082       .  S
C565        C570   1.380       .  A
C565        C566   1.404       .  A
C565        O571   1.320       .  A
C566        C567   1.404       .  A
C566        H577   1.082       .  S
C567        C576   1.362       .  A
C567        C568   1.380       .  A
C568        C569   1.405       .  A
C568        O574   1.322       .  A
C569        C570   1.405       .  A
C569        H578   1.082       .  S
C570        C573   1.364       .  A
O571        C572   1.331       .  A
C572        C573   1.391       .  A
C573        H579   1.082       .  S
O574        C575   1.332       .  A
C575        C576   1.393       .  A
C576        H580   1.082       .  S
C581        C586   1.380       .  A
C581        C582   1.407       .  A
C581        O587   1.322       .  A
C582        C583   1.406       .  A
C582        H593   1.082       .  S
C583        C592   1.366       .  A
C583        C584   1.380       .  A
C584        C585   1.402       .  A
C584        O590   1.318       .  A
C585        C586   1.402       .  A
C585        H594   1.083       .  S
C586        C589   1.360       .  A
O587        C588   1.332       .  A
C588        C589   1.390       .  A
C589        H595   1.083       .  S
O590        C591   1.331       .  A
C591        C592   1.393       .  A
C592        H596   1.082       .  S
C597        C602   1.380       .  A
C597        C598   1.401       .  A
C597        O603   1.318       .  A
C598        C599   1.401       .  A
C598        H609   1.083       .  S
C599        C608   1.359       .  A
C599        C600   1.380       .  A
C600        C601   1.410       .  A
C600        O606   1.324       .  A
C601        C602   1.409       .  A
C601        H610   1.082       .  S
C602        C605   1.369       .  A
O603        C604   1.330       .  A
C604        C605   1.395       .  A
C605        H611   1.082       .  S
O606        C607   1.334       .  A
C607        C608   1.389       .  A
C608        H612   1.083       .  S
C613        C618   1.380       .  A
C613        C614   1.403       .  A
C613        O619   1.319       .  A
C614        C615   1.402       .  A
C614        H625   1.083       .  S
C615        C624   1.361       .  A
C615        C616   1.380       .  A
C616        C617   1.405       .  A
C616        O622   1.321       .  A
C617        C618   1.405       .  A
C617        H626   1.083       .  S
C618        C621   1.363       .  A
O619        C620   1.331       .  A
C620        C621   1.391       .  A
C621        H627   1.083       .  S
O622        C623   1.332       .  A
C623        C624   1.391       .  A
C624        H628   1.082       .  S
C629        C634   1.380       .  A
C629        C630   1.406       .  A
C629        O635   1.322       .  A
C630        C631   1.406       .  A
C630        H641   1.082       .  S
C631        C640   1.364       .  A
C631        C632   1.380       .  A
C632        C633   1.403       .  A
C632        O638   1.320       .  A
C633        C634   1.403       .  A
C633        H642   1.083       .  S
C634        C637   1.361       .  A
O635        C636   1.332       .  A
C636        C637   1.391       .  A
C637        H643   1.083       .  S
O638        C639   1.331       .  A
C639        C640   1.393       .  A
C640        H644   1.082       .  S
C645        C650   1.380       .  A
C645        C646   1.407       .  A
C645        O651   1.322       .  A
C646        C647   1.406       .  A
C646        H657   1.082       .  S
C647        C656   1.366       .  A
C647        C648   1.380       .  A
C648        C649   1.401       .  A
C648        O654   1.318       .  A
C649        C650   1.401       .  A
C649        H658   1.083       .  S
C650        C653   1.359       .  A
O651        C652   1.332       .  A
C652        C653   1.389       .  A
C653        H659   1.083       .  S
O654        C655   1.330       .  A
C655        C656   1.394       .  A
C656        H660   1.082       .  S
C661        C666   1.380       .  A
C661        C662   1.403       .  A
C661        O667   1.320       .  A
C662        C663   1.403       .  A
C662        H673   1.082       .  S
C663        C672   1.360       .  A
C663        C664   1.380       .  A
C664        C665   1.407       .  A
C664        O670   1.323       .  A
C665        C666   1.407       .  A
C665        H674   1.082       .  S
C666        C669   1.365       .  A
O667        C668   1.331       .  A
C668        C669   1.393       .  A
C669        H675   1.082       .  S
O670        C671   1.333       .  A
C671        C672   1.392       .  A
C672        H676   1.083       .  S
C677        C682   1.380       .  A
C677        C678   1.405       .  A
C677        O683   1.320       .  A
C678        C679   1.404       .  A
C678        H689   1.083       .  S
C679        C688   1.364       .  A
C679        C680   1.380       .  A
C680        C681   1.406       .  A
C680        O686   1.321       .  A
C681        C682   1.405       .  A
C681        H690   1.082       .  S
C682        C685   1.365       .  A
O683        C684   1.332       .  A
C684        C685   1.393       .  A
C685        H691   1.082       .  S
O686        C687   1.332       .  A
C687        C688   1.392       .  A
C688        H692   1.082       .  S
C693        C698   1.380       .  A
C693        C694   1.407       .  A
C693        O699   1.322       .  A
C694        C695   1.406       .  A
C694        H705   1.082       .  S
C695        C704   1.366       .  A
C695        C696   1.379       .  A
C696        C697   1.406       .  A
C696        O702   1.322       .  A
C697        C698   1.406       .  A
C697        H706   1.082       .  S
C698        C701   1.366       .  A
O699        C700   1.333       .  A
C700        C701   1.393       .  A
C701        H707   1.082       .  S
O702        C703   1.333       .  A
C703        C704   1.393       .  A
C704        H708   1.082       .  S
C709        C714   1.379       .  A
C709        C710   1.409       .  A
C709        O715   1.324       .  A
C710        C711   1.409       .  A
C710        H721   1.082       .  S
C711        C720   1.367       .  A
C711        C712   1.379       .  A
C712        C713   1.406       .  A
C712        O718   1.322       .  A
C713        C714   1.405       .  A
C713        H722   1.082       .  S
C714        C717   1.365       .  A
O715        C716   1.334       .  A
C716        C717   1.393       .  A
C717        H723   1.082       .  S
O718        C719   1.333       .  A
C719        C720   1.395       .  A
C720        H724   1.082       .  S
C725        C730   1.380       .  A
C725        C726   1.404       .  A
C725        O731   1.320       .  A
C726        C727   1.404       .  A
C726        H737   1.082       .  S
C727        C736   1.363       .  A
C727        C728   1.380       .  A
C728        C729   1.405       .  A
C728        O734   1.321       .  A
C729        C730   1.405       .  A
C729        H738   1.082       .  S
C730        C733   1.364       .  A
O731        C732   1.331       .  A
C732        C733   1.391       .  A
C733        H739   1.082       .  S
O734        C735   1.332       .  A
C735        C736   1.393       .  A
C736        H740   1.082       .  S
C741        C746   1.380       .  A
C741        C742   1.407       .  A
C741        O747   1.322       .  A
C742        C743   1.407       .  A
C742        H753   1.082       .  S
C743        C752   1.366       .  A
C743        C744   1.380       .  A
C744        C745   1.405       .  A
C744        O750   1.321       .  A
C745        C746   1.404       .  A
C745        H754   1.082       .  S
C746        C749   1.364       .  A
O747        C748   1.333       .  A
C748        C749   1.391       .  A
C749        H755   1.082       .  S
O750        C751   1.332       .  A
C751        C752   1.394       .  A
C752        H756   1.082       .  S
C757        C762   1.380       .  A
C757        C758   1.407       .  A
C757        O763   1.323       .  A
C758        C759   1.406       .  A
C758        H769   1.082       .  S
C759        C768   1.366       .  A
C759        C760   1.379       .  A
C760        C761   1.406       .  A
C760        O766   1.322       .  A
C761        C762   1.405       .  A
C761        H770   1.083       .  S
C762        C765   1.364       .  A
O763        C764   1.333       .  A
C764        C765   1.393       .  A
C765        H771   1.083       .  S
O766        C767   1.333       .  A
C767        C768   1.394       .  A
C768        H772   1.082       .  S
C773        C778   1.380       .  A
C773        C774   1.401       .  A
C773        O779   1.316       .  A
C774        C775   1.400       .  A
C774        H785   1.083       .  S
C775        C784   1.359       .  A
C775        C776   1.380       .  A
C776        C777   1.407       .  A
C776        O782   1.322       .  A
C777        C778   1.406       .  A
C777        H786   1.082       .  S
C778        C781   1.367       .  A
O779        C780   1.329       .  A
C780        C781   1.393       .  A
C781        H787   1.082       .  S
O782        C783   1.332       .  A
C783        C784   1.389       .  A
C784        H788   1.083       .  S
C789        C794   1.380       .  A
C789        C790   1.408       .  A
C789        O795   1.323       .  A
C790        C791   1.407       .  A
C790        H801   1.082       .  S
C791        C800   1.367       .  A
C791        C792   1.380       .  A
C792        C793   1.401       .  A
C792        O798   1.317       .  A
C793        C794   1.401       .  A
C793        H802   1.083       .  S
C794        C797   1.359       .  A
O795        C796   1.333       .  A
C796        C797   1.389       .  A
C797        H803   1.083       .  S
O798        C799   1.330       .  A
C799        C800   1.394       .  A
C800        H804   1.082       .  S
