geometry optimzed in LAMMPS
_audit_creation_date              2020-11-30 
_audit_creation_method            'lammps2cif' 
_symmetry_space_group_name_H-M    'P1' 
_symmetry_Int_Tables_number       1 
_symmetry_cell_setting            triclinic 
loop_ 
_symmetry_equiv_pos_as_xyz 
  x,y,z 
_cell_length_a                    28.155849199589063 
_cell_length_b                    34.484079394929566 
_cell_length_c                    36.25402234296389 
_cell_angle_alpha                 90.03515766166518 
_cell_angle_beta                  89.97906104455924 
_cell_angle_gamma                 90.09884368819873 
loop_ 
_atom_site_label 
_atom_site_type_symbol 
_atom_site_fract_x 
_atom_site_fract_y 
_atom_site_fract_z 
_atom_site_charge 
O1          O  0.65341842  0.98362562  0.08550483    -0.82180
O2          O  0.65580345  0.80016151  0.06237644    -0.66860
O3          O  0.61915310  0.90799010  0.07120538    -1.13470
C4          C  0.63257736  0.87600331  0.19993046     1.04710
O5          O  0.59492804  0.79549635  0.09876476    -0.80070
O6          O  0.55227321  0.83738551  0.14943025    -0.67650
Ni7        Ni  0.64877718  0.94858562  0.04407166     1.34870
C8          C  0.53254764  0.86790013  0.13786612     0.83450
O9          O  0.63451245  0.85619132  0.01221922    -0.80610
O10         O  0.64514102  0.91935779  0.49895779    -0.90890
C11         C  0.62656672  0.77889201  0.07995585     0.83020
O12         O  0.71165379  0.93148639  0.05380447    -0.69090
O13         O  0.63210248  0.84041265  0.19009310    -0.88380
C14         C  0.73072234  0.89856151  0.05904040     0.83850
C15         C  0.63806627  0.88425543  0.48944373     1.05420
H16         H  0.67789855  0.85644051  0.12455552     0.37220
O17         O  0.64474444  0.85705402  0.11758450    -1.11040
O18         O  0.55581332  0.89654466  0.12536747    -0.67690
Ni19       Ni  0.62303654  0.90811387  0.12424459     1.26350
O20         O  0.70730341  0.86695199  0.06142798    -0.67920
O21         O  0.62746072  0.90465466  0.17755648    -0.80210
C22         C  0.62764434  0.98838681  0.11396509     0.83240
O23         O  0.60482165  0.96092046  0.12896294    -0.67380
Ni24       Ni  0.61439433  0.81729698  0.14425389     1.27450
Ni25       Ni  0.64004544  0.85525781  0.06480079     1.26060
H26         H  0.58614088  0.90868492  0.06402999     0.37780
O27         O  0.65348255  0.98361973  0.33550671    -0.82180
O28         O  0.65581815  0.80016124  0.31237512    -0.66860
O29         O  0.61918194  0.90799334  0.32120740    -1.13470
C30         C  0.63259931  0.87600332  0.44993094     1.04710
O31         O  0.59494379  0.79549954  0.34876413    -0.80070
O32         O  0.55229502  0.83739567  0.39942637    -0.67650
Ni33       Ni  0.64880087  0.94858719  0.29406892     1.34870
C34         C  0.53257409  0.86791491  0.38786839     0.83450
O35         O  0.63453024  0.85619334  0.26221878    -0.80610
O36         O  0.64512505  0.91936328  0.24895380    -0.90890
C37         C  0.62658118  0.77889322  0.32995576     0.83020
O38         O  0.71167869  0.93147636  0.30377499    -0.69090
O39         O  0.63211926  0.84041314  0.44009263    -0.88380
C40         C  0.73074436  0.89855313  0.30902540     0.83850
C41         C  0.63805935  0.88425858  0.23944205     1.05420
H42         H  0.67792045  0.85643590  0.37455472     0.37220
O43         O  0.64476675  0.85705414  0.36758457    -1.11040
O44         O  0.55584377  0.89655970  0.37537377    -0.67690
Ni45       Ni  0.62307075  0.90811811  0.37424594     1.26350
O46         O  0.70732394  0.86694626  0.31142865    -0.67920
O47         O  0.62749604  0.90465684  0.42755741    -0.80210
C48         C  0.62770904  0.98839101  0.36396602     0.83240
O49         O  0.60487319  0.96093094  0.37896363    -0.67380
Ni50       Ni  0.61441161  0.81729940  0.39425306     1.27450
Ni51       Ni  0.64006572  0.85525880  0.31480077     1.26060
H52         H  0.58616834  0.90868981  0.31403516     0.37780
O53         O  0.86036600  0.98247261  0.03586778    -0.82180
O54         O  0.85648161  0.79983010  0.05995032    -0.66860
O55         O  0.89443895  0.90702607  0.05020638    -1.13470
C56         C  0.88080562  0.87526039  0.42164006     1.04710
O57         O  0.91620935  0.79179805  0.52228912    -0.80070
O58         O  0.96034570  0.83498728  0.47318098    -0.67650
Ni59       Ni  0.86542919  0.94783715  0.07742475     1.34870
C60         C  0.98048215  0.86568252  0.48419270     0.83450
O61         O  0.87841044  0.85562931  0.10931445    -0.80610
O62         O  0.86929791  0.91886446  0.12264492    -0.90890
C63         C  0.88574074  0.77734497  0.04395625     0.83020
O64         O  0.80224295  0.93107969  0.06827373    -0.69090
O65         O  0.88096080  0.83967022  0.43144770    -0.88380
C66         C  0.78272330  0.89835555  0.06271611     0.83850
C67         C  0.87555956  0.88368017  0.13212899     1.05420
H68         H  0.83505565  0.85555431  0.49716563     0.37220
O69         O  0.86820365  0.85592337  0.50406755    -1.11040
O70         O  0.95756346  0.89491730  0.49582914    -0.67690
Ni71       Ni  0.89047928  0.90702670  0.49724990     1.26350
O72         O  0.80572325  0.86663475  0.05998391    -0.67920
O73         O  0.88590889  0.90381657  0.44406192    -0.80210
C74         C  0.88619426  0.98727524  0.50747462     0.83240
O75         O  0.90911568  0.95984569  0.49253370    -0.67380
Ni76       Ni  0.89745540  0.81568913  0.47728332     1.27450
Ni77       Ni  0.87286644  0.85454137  0.05677549     1.26060
H78         H  0.92750553  0.90753224  0.05730353     0.37780
O79         O  0.86036551  0.98247349  0.28586755    -0.82180
O80         O  0.85651386  0.79982990  0.30994751    -0.66860
O81         O  0.89445702  0.90703077  0.30020485    -1.13470
C82         C  0.88081738  0.87526206  0.17163994     1.04710
O83         O  0.91624321  0.79179878  0.27228738    -0.80070
O84         O  0.96037321  0.83499769  0.22318251    -0.67650
Ni85       Ni  0.86543787  0.94783791  0.32742334     1.34870
C86         C  0.98050616  0.86569523  0.23419262     0.83450
O87         O  0.87842555  0.85563058  0.35931318    -0.80610
O88         O  0.86930587  0.91886474  0.37264342    -0.90890
C89         C  0.88577416  0.77734515  0.29395412     0.83020
O90         O  0.80225792  0.93107335  0.31826719    -0.69090
O91         O  0.88098642  0.83967204  0.18144772    -0.88380
C92         C  0.78274346  0.89834839  0.31270555     0.83850
C93         C  0.87556443  0.88368030  0.38212800     1.05420
H94         H  0.83508501  0.85555115  0.24716369     0.37220
O95         O  0.86823272  0.85592417  0.25406630    -1.11040
O96         O  0.95758414  0.89493069  0.24582482    -0.67690
Ni97       Ni  0.89049600  0.90703131  0.24724781     1.26350
O98         O  0.80574655  0.86662911  0.30997595    -0.67920
O99         O  0.88592039  0.90381963  0.19406032    -0.80210
C100        C  0.88618314  0.98728045  0.25746964     0.83240
O101        O  0.90911581  0.95985602  0.24252951    -0.67380
Ni102      Ni  0.89748696  0.81569168  0.22728239     1.27450
Ni103      Ni  0.87289154  0.85454278  0.30677365     1.26060
H104        H  0.92752355  0.90754073  0.30730177     0.37780
O105        O  0.86001654  0.03035776  0.21192754    -0.82180
O106        O  0.85776149  0.21353522  0.18894045    -0.66860
O107        O  0.89461784  0.10579076  0.19763383    -1.13470
C108        C  0.88144716  0.13765530  0.32639749     1.04710
O109        O  0.91861412  0.21838338  0.22534732    -0.80070
O110        O  0.96144445  0.17645429  0.27584800    -0.67650
Ni111      Ni  0.86532605  0.06510558  0.17041543     1.34870
C112        C  0.98122126  0.14593172  0.26429638     0.83450
O113        O  0.87907837  0.15748636  0.13870219    -0.80610
O114        O  0.86956463  0.09418668  0.12533859    -0.90890
C115        C  0.88703578  0.23488221  0.20641515     0.83020
O116        O  0.80225824  0.08218032  0.17938791    -0.69090
O117        O  0.88170567  0.17324649  0.31661251    -0.88380
C118        C  0.78306373  0.11503884  0.18473525     0.83850
C119        C  0.87605353  0.12936749  0.11589358     1.05420
H120        H  0.83582660  0.15719356  0.25109261     0.37220
O121        O  0.86894942  0.15664201  0.24410539    -1.11040
O122        O  0.95800600  0.11726249  0.25176537    -0.67690
Ni123      Ni  0.89081335  0.10559597  0.25065107     1.26350
O124        O  0.80639794  0.14662599  0.18784111    -0.67920
O125        O  0.88653192  0.10901324  0.30397039    -0.80210
C126        C  0.88616592  0.02538019  0.24011089     0.83240
O127        O  0.90913515  0.05276784  0.25514651    -0.67380
Ni128      Ni  0.89924376  0.19644165  0.27079696     1.27450
Ni129      Ni  0.87360476  0.15845302  0.19130536     1.26060
H130        H  0.92764087  0.10520187  0.19045348     0.37780
O131        O  0.86010325  0.03034047  0.46190102    -0.82180
O132        O  0.85785909  0.21353719  0.43893326    -0.66860
O133        O  0.89469214  0.10578730  0.44764282    -1.13470
C134        C  0.88137871  0.13764690  0.07640109     1.04710
O135        O  0.91866964  0.21838725  0.47538426    -0.80070
O136        O  0.96144456  0.17644719  0.02590747    -0.67650
Ni137      Ni  0.86541025  0.06510837  0.42040627     1.34870
C138        C  0.98122656  0.14592614  0.01435690     0.83450
O139        O  0.87921094  0.15749163  0.38870319    -0.80610
O140        O  0.86963822  0.09420048  0.37533700    -0.90890
C141        C  0.88711229  0.23488460  0.45642905     0.83020
O142        O  0.80234624  0.08217928  0.42939284    -0.69090
O143        O  0.88165362  0.17323864  0.06661873    -0.88380
C144        C  0.78315344  0.11504197  0.43472003     0.83850
C145        C  0.87615185  0.12937736  0.36589268     1.05420
H146        H  0.83585223  0.15719583  0.00106644     0.37220
O147        O  0.86898235  0.15664152  0.99410081    -1.11040
O148        O  0.95801751  0.11725832  0.00181575    -0.67690
Ni149      Ni  0.89082755  0.10559308  0.00065966     1.26350
O150        O  0.80648818  0.14663143  0.43780405    -0.67920
O151        O  0.88648582  0.10900699  0.05397561    -0.80210
C152        C  0.88619799  0.02537386  0.49011568     0.83240
O153        O  0.90913781  0.05276498  0.00517200    -0.67380
Ni154      Ni  0.89924809  0.19643771  0.02081787     1.27450
Ni155      Ni  0.87369316  0.15845389  0.44130408     1.26060
H156        H  0.92772221  0.10519286  0.44048268     0.37780
O157        O  0.65318155  0.03106889  0.16013968    -0.82180
O158        O  0.65756482  0.21385590  0.18451890    -0.66860
O159        O  0.61934588  0.10666847  0.17457010    -1.13470
C160        C  0.63322345  0.13843440  0.04606705     1.04710
O161        O  0.59792492  0.22180111  0.14686458    -0.80070
O162        O  0.55377983  0.17876095  0.09761535    -0.67650
Ni163      Ni  0.64810622  0.06576981  0.20175747     1.34870
C164        C  0.53361428  0.14801838  0.10844018     0.83450
O165        O  0.63523204  0.15805672  0.23377529    -0.80610
O166        O  0.64426179  0.09479361  0.24700111    -0.90890
C167        C  0.62849789  0.23635390  0.16836852     0.83020
O168        O  0.71138953  0.08242539  0.19285320    -0.69090
O169        O  0.63315244  0.17402664  0.05591522    -0.88380
C170        C  0.73100234  0.11518634  0.18770437     0.83850
C171        C  0.63815203  0.13000112  0.25654141     1.05420
H172        H  0.67906354  0.15809526  0.12173132     0.37220
O173        O  0.64589319  0.15774253  0.12855617    -1.11040
O174        O  0.55648631  0.11879172  0.12008144    -0.67690
Ni175      Ni  0.62353560  0.10667281  0.12161830     1.26350
O176        O  0.70805957  0.14691521  0.18480785    -0.67920
O177        O  0.62822753  0.10988729  0.06846637    -0.80210
C178        C  0.62763246  0.02641563  0.13156472     0.83240
O179        O  0.60481540  0.05391298  0.11671385    -0.67380
Ni180      Ni  0.61668566  0.19799248  0.10179968     1.27450
Ni181      Ni  0.64099788  0.15913987  0.18126841     1.26060
H182        H  0.58625698  0.10621152  0.18159639     0.37780
O183        O  0.65330377  0.03109153  0.41011112    -0.82180
O184        O  0.65765935  0.21385605  0.43451682    -0.66860
O185        O  0.61943054  0.10667128  0.42457553    -1.13470
C186        C  0.63318017  0.13844672  0.29606958     1.04710
O187        O  0.59798572  0.22179927  0.39689629    -0.80070
O188        O  0.55379835  0.17876799  0.34766963    -0.67650
Ni189      Ni  0.64819725  0.06576728  0.45174795     1.34870
C190        C  0.53363882  0.14802388  0.35849636     0.83450
O191        O  0.63535933  0.15804905  0.48377744    -0.80610
O192        O  0.64431644  0.09477606  0.49700035    -0.90890
C193        C  0.62857645  0.23635332  0.41838334     0.83020
O194        O  0.71148250  0.08243532  0.44287132    -0.69090
O195        O  0.63312265  0.17403828  0.30592043    -0.88380
C196        C  0.73109358  0.11519161  0.43769355     0.83850
C197        C  0.63823267  0.12998753  0.50654145     1.05420
H198        H  0.67910119  0.15810010  0.37171005     0.37220
O199        O  0.64593775  0.15774704  0.37855264    -1.11040
O200        O  0.55651757  0.11879394  0.37012326    -0.67690
Ni201      Ni  0.62357137  0.10667728  0.37162399     1.26350
O202        O  0.70815061  0.14691700  0.43477300    -0.67920
O203        O  0.62821073  0.10989703  0.31846995    -0.80210
C204        C  0.62770858  0.02642344  0.38156245     0.83240
O205        O  0.60485378  0.05391329  0.36673228    -0.67380
Ni206      Ni  0.61670501  0.19799930  0.35181781     1.27450
Ni207      Ni  0.64108796  0.15914025  0.43126803     1.26060
H208        H  0.58634658  0.10621707  0.43161780     0.37780
O209        O  0.09697094  0.79174023  0.02300656    -0.82180
O210        O  0.10468068  0.95949982  0.49289591    -0.66860
O211        O  0.14505093  0.85559690  0.50448313    -1.13470
C212        C  0.13779275  0.88324154  0.13258395     1.04710
O213        O  0.15298111  0.98227713  0.03649746    -0.80070
O214        O  0.21104093  0.93094396  0.06875810    -0.67650
Ni215      Ni  0.11549703  0.81535907  0.47781690     1.34870
C216        C  0.23055592  0.89829234  0.06308710     0.83450
O217        O  0.12779373  0.90342765  0.44451529    -0.80610
O218        O  0.13194199  0.83923601  0.43189458    -0.90890
C219        C  0.12752084  0.98697282  0.00791777     0.83020
O220        O  0.05269454  0.83466737  0.47376918    -0.69090
O221        O  0.14398403  0.91844884  0.12311224    -0.88380
C222        C  0.03276826  0.86554306  0.48441071     0.83850
C223        C  0.13252016  0.87483124  0.42209368     1.05420
H224        H  0.08578078  0.90703740  0.05770329     0.37220
O225        O  0.11886768  0.90663453  0.05065982    -1.11040
O226        O  0.20757338  0.86650981  0.06031755    -0.67690
Ni227      Ni  0.14046686  0.85417465  0.05720685     1.26350
O228        O  0.05586846  0.89473971  0.49603937    -0.67920
O229        O  0.13498580  0.85518797  0.10976200    -0.80210
C230        C  0.12793434  0.77703367  0.04399515     0.83240
O231        O  0.15704635  0.79950360  0.06024761    -0.67380
Ni232      Ni  0.14785585  0.94750211  0.07795433     1.27450
Ni233      Ni  0.12303233  0.90668391  0.49768125     1.26060
H234        H  0.17816940  0.85519033  0.49752905     0.37780
O235        O  0.09699355  0.79174244  0.27300846    -0.82180
O236        O  0.10471776  0.95950890  0.24290110    -0.66860
O237        O  0.14507530  0.85559918  0.25448271    -1.13470
C238        C  0.13779681  0.88324153  0.38258518     1.04710
O239        O  0.15303415  0.98227326  0.28649770    -0.80070
O240        O  0.21106936  0.93093742  0.31878131    -0.67650
Ni241      Ni  0.11551611  0.81536272  0.22781857     1.34870
C242        C  0.23058313  0.89828744  0.31309915     0.83450
O243        O  0.12781801  0.90343228  0.19451576    -0.80610
O244        O  0.13195483  0.83923949  0.18189565    -0.90890
C245        C  0.12756745  0.98697765  0.25792234     0.83020
O246        O  0.05271613  0.83467602  0.22377666    -0.69090
O247        O  0.14398173  0.91845084  0.37311604    -0.88380
C248        C  0.03279253  0.86555477  0.23441347     0.83850
C249        C  0.13253280  0.87483431  0.17209398     1.05420
H250        H  0.08581030  0.90703961  0.30770320     0.37220
O251        O  0.11889767  0.90663669  0.30066032    -1.11040
O252        O  0.20759967  0.86650712  0.31031611    -0.67690
Ni253      Ni  0.14049309  0.85417564  0.30720659     1.26350
O254        O  0.05589507  0.89475141  0.24603966    -0.67920
O255        O  0.13501105  0.85518776  0.35976188    -0.80210
C256        C  0.12795788  0.77703486  0.29399540     0.83240
O257        O  0.15707134  0.79950418  0.31024677    -0.67380
Ni258      Ni  0.14788226  0.94750286  0.32795794     1.27450
Ni259      Ni  0.12306130  0.90668887  0.24768227     1.26060
H260        H  0.17819309  0.85519038  0.24752776     0.37780
O261        O  0.41816521  0.79567093  0.09904225    -0.82180
O262        O  0.40880436  0.96116001  0.12897534    -0.66860
O263        O  0.36827723  0.85734636  0.11758951    -1.13470
C264        C  0.37496817  0.88459191  0.98950273     1.04710
O265        O  0.36013549  0.98388643  0.08565895    -0.80070
O266        O  0.30160677  0.93165507  0.05423712    -0.67650
Ni267      Ni  0.39822152  0.81758744  0.14437375     1.34870
C268        C  0.28253331  0.89864856  0.05930174     0.83450
O269        O  0.38586658  0.90493859  0.17761009    -0.80610
O270        O  0.38021745  0.84074078  0.19011210    -0.90890
C271        C  0.38608661  0.98863829  0.11402003     0.83020
O272        O  0.46037569  0.83770231  0.14983580    -0.69090
O273        O  0.36772907  0.91964696  0.99904788    -0.88380
C274        C  0.48038761  0.86801787  0.13794953     0.83850
C275        C  0.38028803  0.87632274  0.19997508     1.05420
H276        H  0.42708971  0.90913176  0.06402935     0.37220
O277        O  0.39408490  0.90833201  0.07124743    -1.11040
O278        O  0.30593136  0.86706944  0.06139861    -0.67690
Ni279      Ni  0.37318778  0.85557135  0.06482823     1.26350
O280        O  0.45737844  0.89664028  0.12526302    -0.67920
O281        O  0.37881771  0.85655919  0.01226545    -0.80210
C282        C  0.38695541  0.77915225  0.07967269     0.83240
O283        O  0.35760721  0.80042224  0.06229738    -0.67380
Ni284      Ni  0.36442810  0.94886527  0.04420086     1.27450
Ni285      Ni  0.39025272  0.90838990  0.12427825     1.26060
H286        H  0.33512603  0.85678507  0.12449187     0.37780
O287        O  0.41820014  0.79567142  0.34905401    -0.82180
O288        O  0.40881761  0.96117381  0.37897089    -0.66860
O289        O  0.36830805  0.85735308  0.36759186    -1.13470
C290        C  0.37497458  0.88457907  0.23950365     1.04710
O291        O  0.36015909  0.98389377  0.33564414    -0.80070
O292        O  0.30162996  0.93165187  0.30424669    -0.67650
Ni293      Ni  0.39825155  0.81759770  0.39438053     1.34870
C294        C  0.28255971  0.89864446  0.30931127     0.83450
O295        O  0.38588220  0.90495365  0.42760986    -0.80610
O296        O  0.38023897  0.84075585  0.44011372    -0.90890
C297        C  0.38609684  0.98864845  0.36401177     0.83020
O298        O  0.46040275  0.83771932  0.39984159    -0.69090
O299        O  0.36773182  0.91963405  0.24904670    -0.88380
C300        C  0.48041372  0.86803489  0.38795372     0.83850
C301        C  0.38029944  0.87633807  0.44997498     1.05420
H302        H  0.42711562  0.90913768  0.31402773     0.37220
O303        O  0.39411090  0.90833577  0.32124537    -1.11040
O304        O  0.30595991  0.86706582  0.31140264    -0.67690
Ni305      Ni  0.37321802  0.85557175  0.31483185     1.26350
O306        O  0.45740356  0.89665652  0.37526630    -0.67920
O307        O  0.37884314  0.85655083  0.26226877    -0.80210
C308        C  0.38699146  0.77915236  0.32968307     0.83240
O309        O  0.35764237  0.80042161  0.31230769    -0.67380
Ni310      Ni  0.36444530  0.94886209  0.29419427     1.27450
Ni311      Ni  0.39027549  0.90839993  0.37427702     1.26060
H312        H  0.33515653  0.85679027  0.37449373     0.37780
O313        O  0.41717374  0.22165842  0.14696536    -0.82180
O314        O  0.40954311  0.05407129  0.11675024    -0.66860
O315        O  0.36896439  0.15791205  0.12841182    -1.13470
C316        C  0.37671787  0.13020452  0.25648034     1.04710
O317        O  0.36074747  0.03145146  0.16007459    -0.80070
O318        O  0.30311463  0.08260315  0.19337120    -0.67650
Ni319      Ni  0.39858875  0.19811646  0.10175604     1.34870
C320        C  0.28351116  0.11524681  0.18789283     0.83450
O321        O  0.38654678  0.11007399  0.06839297    -0.80610
O322        O  0.38216796  0.17424024  0.05581526    -0.90890
C323        C  0.38640454  0.02666711  0.13157909     0.83020
O324        O  0.46140252  0.17885290  0.09764727    -0.69090
O325        O  0.37090027  0.09493746  0.24698029    -0.88380
C326        C  0.48134206  0.14806686  0.10844023     0.83850
C327        C  0.38178502  0.13863952  0.04598562     1.05420
H328        H  0.42825122  0.10657133  0.18154680     0.37220
O329        O  0.39517069  0.10692754  0.17451062    -1.11040
O330        O  0.30647827  0.14698836  0.18455448    -0.67690
Ni331      Ni  0.37358679  0.15935475  0.18115220     1.26350
O332        O  0.45824694  0.11887635  0.12005174    -0.67920
O333        O  0.37914767  0.15830305  0.23369961    -0.80210
C334        C  0.38625828  0.23646475  0.16795194     0.83240
O335        O  0.35709724  0.21406697  0.18425049    -0.67380
Ni336      Ni  0.36644838  0.06598258  0.20175601     1.27450
Ni337      Ni  0.39111002  0.10685558  0.12155602     1.26060
H338        H  0.33580906  0.15829254  0.12149314     0.37780
O339        O  0.41714952  0.22165173  0.39700968    -0.82180
O340        O  0.40956634  0.05407824  0.36676839    -0.66860
O341        O  0.36896088  0.15791579  0.37840661    -1.13470
C342        C  0.37661159  0.13018513  0.50647758     1.04710
O343        O  0.36068025  0.03146995  0.41003560    -0.80070
O344        O  0.30303989  0.08260276  0.44335523    -0.67650
Ni345      Ni  0.39861661  0.19812518  0.35178050     1.34870
C346        C  0.28343725  0.11524350  0.43785987     0.83450
O347        O  0.38662251  0.11008968  0.31839609    -0.80610
O348        O  0.38224890  0.17425845  0.30582314    -0.90890
C349        C  0.38639446  0.02667722  0.38157188     0.83020
O350        O  0.46143255  0.17886255  0.34770679    -0.69090
O351        O  0.37082058  0.09491554  0.49697299    -0.88380
C352        C  0.48136623  0.14807448  0.35850029     0.83850
C353        C  0.38187753  0.13865846  0.29598946     1.05420
H354        H  0.42818867  0.10657606  0.43157712     0.37220
O355        O  0.39511631  0.10692894  0.42451757    -1.11040
O356        O  0.30640606  0.14698251  0.43450744    -0.67690
Ni357      Ni  0.37351809  0.15935156  0.43115067     1.26350
O358        O  0.45826417  0.11888370  0.37010307    -0.67920
O359        O  0.37902047  0.15828913  0.48370101    -0.80210
C360        C  0.38620683  0.23646041  0.41797025     0.83240
O361        O  0.35702271  0.21406333  0.43424489    -0.67380
Ni362      Ni  0.36637343  0.06597659  0.45173730     1.27450
Ni363      Ni  0.39112335  0.10686246  0.37156172     1.26060
H364        H  0.33581359  0.15829469  0.37146321     0.37780
O365        O  0.09611278  0.21821969  0.22582561    -0.82180
O366        O  0.10482751  0.05243511  0.25541454    -0.66860
O367        O  0.14565664  0.15625209  0.24431592    -1.13470
C368        C  0.13849150  0.12889045  0.11616837     1.04710
O369        O  0.15418089  0.03001695  0.21239249    -0.80070
O370        O  0.21223404  0.08194220  0.17991342    -0.67650
Ni371      Ni  0.11571699  0.19607122  0.27112767     1.34870
C372        C  0.23142827  0.11490195  0.18501082     0.83450
O373        O  0.12767305  0.10860304  0.30424230    -0.80610
O374        O  0.13332805  0.17278653  0.31686562    -0.90890
C375        C  0.12782526  0.02504848  0.24050057     0.83020
O376        O  0.05341611  0.17612691  0.27631284    -0.69090
O377        O  0.14516829  0.09374965  0.12564308    -0.88380
C378        C  0.03338960  0.14579042  0.26445301     0.83850
C379        C  0.13315556  0.13720022  0.32666454     1.05420
H380        H  0.08680926  0.10464366  0.19069121     0.37220
O381        O  0.11981205  0.10533978  0.19791081    -1.11040
O382        O  0.20806948  0.14642989  0.18791424    -0.67690
Ni383      Ni  0.14085351  0.15801895  0.19153611     1.26350
O384        O  0.05638950  0.11708411  0.25187466    -0.67920
O385        O  0.13524419  0.15699015  0.13896423    -0.80210
C386        C  0.12739119  0.23452273  0.20633899     0.83240
O387        O  0.15665029  0.21309592  0.18902197    -0.67380
Ni388      Ni  0.14917752  0.06470774  0.17079492     1.27450
Ni389      Ni  0.12349030  0.10522091  0.25091229     1.26060
H390        H  0.17882834  0.15674874  0.25122939     0.37780
O391        O  0.09607467  0.21822041  0.47586245    -0.82180
O392        O  0.10481464  0.05243502  0.00543066    -0.66860
O393        O  0.14564028  0.15624726  0.99431112    -1.13470
C394        C  0.13839938  0.12890528  0.36616696     1.04710
O395        O  0.15408625  0.02999666  0.46236044    -0.80070
O396        O  0.21215518  0.08193515  0.42991010    -0.67650
Ni397      Ni  0.11572788  0.19606287  0.02114815     1.34870
C398        C  0.23135282  0.11489835  0.43498230     0.83450
O399        O  0.12771909  0.10859182  0.05424565    -0.80610
O400        O  0.13339167  0.17277287  0.06687091    -0.90890
C401        C  0.12777310  0.02504106  0.49049417     0.83020
O402        O  0.05342908  0.17611809  0.02637258    -0.69090
O403        O  0.14510167  0.09376784  0.37563879    -0.88380
C404        C  0.03339456  0.14578514  0.01451182     0.83850
C405        C  0.13322603  0.13718602  0.07666733     1.05420
H406        H  0.08673870  0.10464022  0.44071548     0.37220
O407        O  0.11974773  0.10533817  0.44791620    -1.11040
O408        O  0.20799556  0.14642942  0.43787032    -0.67690
Ni409      Ni  0.14078157  0.15801952  0.44153465     1.26350
O410        O  0.05638603  0.11708256  0.00191798    -0.67920
O411        O  0.13512240  0.15699935  0.38896584    -0.80210
C412        C  0.12733220  0.23452311  0.45635476     0.83240
O413        O  0.15657303  0.21309686  0.43901803    -0.67380
Ni414      Ni  0.14909684  0.06471104  0.42078084     1.27450
Ni415      Ni  0.12348182  0.10521617  0.00091720     1.26060
H416        H  0.17881991  0.15674341  0.00120369     0.37780
O417        O  0.91634643  0.29196762  0.23109455    -0.82180
O418        O  0.90956454  0.45992619  0.26112554    -0.66860
O419        O  0.86847716  0.35603915  0.24953009    -1.13470
C420        C  0.87623949  0.38384402  0.12148721     1.04710
O421        O  0.86059989  0.48249414  0.21798615    -0.80070
O422        O  0.80273896  0.43126172  0.18483923    -0.67650
Ni423      Ni  0.89787678  0.31581661  0.27620428     1.34870
C424        C  0.78311896  0.39855683  0.19026834     0.83450
O425        O  0.88644909  0.40394141  0.30955397    -0.80610
O426        O  0.88166606  0.33980193  0.32213314    -0.90890
C427        C  0.88649981  0.48733162  0.24633596     0.83020
O428        O  0.96082352  0.33505376  0.28002280    -0.69090
O429        O  0.87035175  0.41908398  0.13100816    -0.88380
C430        C  0.98089788  0.36573885  0.26894519     0.83850
C431        C  0.88149628  0.37539418  0.33196749     1.05420
H432        H  0.92782817  0.40751325  0.19630323     0.37220
O433        O  0.89477324  0.40708732  0.20342634    -1.11040
O434        O  0.80605132  0.36685673  0.19345377    -0.67690
Ni435      Ni  0.87311873  0.35463302  0.19679673     1.26350
O436        O  0.95791848  0.39501905  0.25757209    -0.67920
O437        O  0.87870437  0.35574526  0.14425592    -0.80210
C438        C  0.88566106  0.27741423  0.20969159     0.83240
O439        O  0.85653464  0.29991295  0.19360439    -0.67380
Ni440      Ni  0.86606752  0.44800076  0.17627134     1.27450
Ni441      Ni  0.89086154  0.40712897  0.25636990     1.26060
H442        H  0.83534321  0.35567568  0.25645978     0.37780
O443        O  0.91639393  0.29197410  0.98112174    -0.82180
O444        O  0.90956162  0.45993018  0.01114470    -0.66860
O445        O  0.86849712  0.35604238  0.99952541    -1.13470
C446        C  0.87631889  0.38383718  0.37148581     1.04710
O447        O  0.86066550  0.48251039  0.46796289    -0.80070
O448        O  0.80280519  0.43126595  0.43483890    -0.67650
Ni449      Ni  0.89787552  0.31582336  0.02621929     1.34870
C450        C  0.78318606  0.39855776  0.44025114     0.83450
O451        O  0.88641001  0.40394686  0.05955823    -0.80610
O452        O  0.88161382  0.33980856  0.07213697    -0.90890
C453        C  0.88652204  0.48733873  0.99633733     0.83020
O454        O  0.96081743  0.33506546  0.03007469    -0.69090
O455        O  0.87040887  0.41907436  0.38100507    -0.88380
C456        C  0.98089594  0.36574707  0.01899285     0.83850
C457        C  0.88143666  0.37540094  0.08197026     1.05420
H458        H  0.92788657  0.40752304  0.44632577     0.37220
O459        O  0.89482607  0.40709268  0.45343271    -1.11040
O460        O  0.80611859  0.36685520  0.44342025    -0.67690
Ni461      Ni  0.87318543  0.35463469  0.44679482     1.26350
O462        O  0.95792142  0.39502457  0.00760800    -0.67920
O463        O  0.87881022  0.35574246  0.39425660    -0.80210
C464        C  0.88573097  0.27741698  0.45970166     0.83240
O465        O  0.85661501  0.29991208  0.44359774    -0.67380
Ni466      Ni  0.86613134  0.44800095  0.42626182     1.27450
Ni467      Ni  0.89086710  0.40713352  0.00637597     1.26060
H468        H  0.83535702  0.35567650  0.00643730     0.37780
O469        O  0.91910808  0.71828404  0.02886388    -0.82180
O470        O  0.90918304  0.55287905  0.99871480    -0.66860
O471        O  0.86925696  0.65674467  0.01009488    -1.13470
C472        C  0.87592695  0.62959070  0.13823841     1.04710
O473        O  0.86070002  0.53019835  0.04226628    -0.80070
O474        O  0.80244256  0.58231241  0.07390446    -0.67650
Ni475      Ni  0.89948250  0.69652643  0.48339644     1.34870
C476        C  0.78335168  0.61522797  0.06867483     0.83450
O477        O  0.88641649  0.60917644  0.45011434    -0.80610
O478        O  0.88162251  0.67342974  0.43759576    -0.90890
C479        C  0.88647425  0.52540919  0.01382144     0.83020
O480        O  0.96155925  0.67643271  0.47795113    -0.69090
O481        O  0.86890236  0.59448966  0.12873108    -0.88380
C482        C  0.98136293  0.64585444  0.48927701     0.83850
C483        C  0.88126905  0.63783964  0.42775014     1.05420
H484        H  0.92799095  0.60515047  0.06358392     0.37220
O485        O  0.89495544  0.60583437  0.05646232    -1.11040
O486        O  0.80675680  0.64684460  0.06627732    -0.67050
Ni487      Ni  0.87401732  0.65855316  0.06287468     1.26350
O488        O  0.95820055  0.61727091  0.00203930    -0.67920
O489        O  0.87954954  0.65764233  0.11545741    -0.80210
C490        C  0.88750424  0.73489117  0.04771172     0.83240
O491        O  0.85826311  0.71363333  0.06529699    -0.67380
Ni492      Ni  0.86533087  0.56525637  0.08364570     1.27450
Ni493      Ni  0.89096681  0.60569822  0.00341768     1.26060
H494        H  0.83609666  0.65733727  0.00315796     0.37780
O495        O  0.91913566  0.71828170  0.27885925    -0.82180
O496        O  0.90918413  0.55286955  0.24871383    -0.66860
O497        O  0.86927721  0.65674222  0.26009360    -1.13470
C498        C  0.87593006  0.62959303  0.38823754     1.04710
O499        O  0.86069993  0.53019619  0.29226806    -0.80070
O500        O  0.80245183  0.58231697  0.32389932    -0.67650
Ni501      Ni  0.89950401  0.69652200  0.23339409     1.34870
C502        C  0.78336473  0.61523332  0.31866767     0.83450
O503        O  0.88642693  0.60917172  0.20011343    -0.80610
O504        O  0.88163626  0.67342553  0.18759573    -0.90890
C505        C  0.88646723  0.52540332  0.26382013     0.83020
O506        O  0.96157700  0.67642166  0.22794813    -0.69090
O507        O  0.86890498  0.59449190  0.37873041    -0.88380
C508        C  0.98137923  0.64584388  0.23927701     0.83850
C509        C  0.88127669  0.63783560  0.17775020     1.05420
H510        H  0.92800233  0.60514340  0.31358390     0.37220
O511        O  0.89496708  0.60583027  0.30646194    -1.11040
O512        O  0.80677260  0.64684895  0.31627234    -0.67690
Ni513      Ni  0.87403540  0.65855193  0.31287270     1.26350
O514        O  0.95821519  0.61726059  0.25203874    -0.67920
O515        O  0.87956183  0.65764306  0.36545581    -0.80210
C516        C  0.88753409  0.73489055  0.29770810     0.83240
O517        O  0.85828992  0.71363426  0.31529254    -0.67380
Ni518      Ni  0.86533526  0.56525615  0.33364593     1.27450
Ni519      Ni  0.89097899  0.60569306  0.25341688     1.26060
H520        H  0.83611710  0.65733718  0.25315651     0.37780
O521        O  0.59779364  0.72199151  0.10535382    -0.82180
O522        O  0.60496313  0.55389331  0.13520634    -0.66860
O523        O  0.64577693  0.65784194  0.12364518    -1.13470
C524        C  0.63841698  0.63003089  0.99558838     1.04710
O525        O  0.65373290  0.53122596  0.09191173    -0.80070
O526        O  0.71184562  0.58267186  0.05946651    -0.67650
Ni527      Ni  0.61634373  0.69804227  0.15038646     1.34870
C528        C  0.73134523  0.61540869  0.06501403     0.83450
O529        O  0.62805179  0.60990316  0.18364512    -0.80610
O530        O  0.63265307  0.67404809  0.19627314    -0.90890
C531        C  0.62794237  0.52645898  0.12034182     0.83020
O532        O  0.55342084  0.67871726  0.15417320    -0.69090
O533        O  0.64474440  0.59484826  0.00507995    -0.88380
C534        C  0.53341300  0.64801223  0.14303775     0.83850
C535        C  0.63302857  0.63845809  0.20607518     1.05420
H536        H  0.58660599  0.60617151  0.07037328     0.37220
O537        O  0.61965645  0.60669341  0.07750586    -1.11040
O538        O  0.70832465  0.64712077  0.06774492    -0.67690
Ni539      Ni  0.64117459  0.65919674  0.07093373     1.26350
O540        O  0.55646593  0.61873530  0.13169001    -0.67920
O541        O  0.63561602  0.65808941  0.01839766    -0.80210
C542        C  0.62831454  0.73642804  0.08372188     0.83240
O543        O  0.65756275  0.71391929  0.06774512    -0.67380
Ni544      Ni  0.64866831  0.56587134  0.05032086     1.27450
Ni545      Ni  0.62355749  0.60670679  0.13045684     1.26060
H546        H  0.67891706  0.65826084  0.13058004     0.37780
O547        O  0.59780855  0.72199365  0.35535768    -0.82180
O548        O  0.60499400  0.55388406  0.38520296    -0.66860
O549        O  0.64579244  0.65784010  0.37364565    -1.13470
C550        C  0.63841300  0.63003474  0.24558729     1.04710
O551        O  0.65376782  0.53122731  0.34190634    -0.80070
O552        O  0.71186066  0.58267888  0.30944880    -0.67650
Ni553      Ni  0.61635774  0.69803873  0.40038822     1.34870
C554        C  0.73135905  0.61541472  0.31500424     0.83450
O555        O  0.62807571  0.60989638  0.43364468    -0.80610
O556        O  0.63266446  0.67404196  0.44627359    -0.90890
C557        C  0.62797869  0.52645335  0.37033635     0.83020
O558        O  0.55343678  0.67870971  0.40417090    -0.69090
O559        O  0.64473774  0.59485080  0.25507633    -0.88380
C560        C  0.53343118  0.64800136  0.39304099     0.83850
C561        C  0.63304309  0.63845206  0.45607530     1.05420
H562        H  0.58662211  0.60616976  0.32037551     0.37220
O563        O  0.61967349  0.60669217  0.32750575    -1.11040
O564        O  0.70833765  0.64712512  0.31774394    -0.67690
Ni565      Ni  0.64118756  0.65919721  0.32093440     1.26350
O566        O  0.55648582  0.61872427  0.38169512    -0.67920
O567        O  0.63562513  0.65809265  0.26839820    -0.80210
C568        C  0.62832847  0.73642924  0.33372422     0.83240
O569        O  0.65757489  0.71391985  0.31774667    -0.67380
Ni570      Ni  0.64868263  0.56587265  0.30031578     1.27450
Ni571      Ni  0.62357933  0.60670179  0.38045631     1.26060
H572        H  0.67893273  0.65826109  0.38057951     0.37780
O573        O  0.59567181  0.29539403  0.15259362    -0.82180
O574        O  0.60517237  0.46093274  0.12275121    -0.66860
O575        O  0.64543005  0.35712937  0.13400901    -1.13470
C576        C  0.63833090  0.38433947  0.26216399     1.04710
O577        O  0.65380571  0.48358768  0.16619926    -0.80070
O578        O  0.71187750  0.43165932  0.19833714    -0.67650
Ni579      Ni  0.61538654  0.31729350  0.10721336     1.34870
C580        C  0.73106060  0.39874813  0.19325137     0.83450
O581        O  0.62805547  0.40470312  0.07407917    -0.80610
O582        O  0.63321546  0.34048182  0.06146581    -0.90890
C583        C  0.62796166  0.48839871  0.13781331     0.83020
O584        O  0.55323595  0.33724025  0.10177647    -0.69090
O585        O  0.64502956  0.41948800  0.25269679    -0.88380
C586        C  0.53331390  0.36775718  0.11317673     0.83850
C587        C  0.63327766  0.37607165  0.05166616     1.05420
H588        H  0.58645668  0.40861168  0.18750218     0.37220
O589        O  0.61950651  0.40799113  0.18040045    -1.11040
O590        O  0.70771606  0.36713414  0.19043816    -0.67690
Ni591      Ni  0.64051692  0.35531397  0.18678827     1.26350
O592        O  0.55636248  0.39638953  0.12598935    -0.67920
O593        O  0.63487686  0.35626018  0.23936127    -0.80210
C594        C  0.62712257  0.27888600  0.17164413     0.83240
O595        O  0.65632608  0.30022592  0.18920020    -0.67380
Ni596      Ni  0.64885980  0.44866344  0.20763295     1.27450
Ni597      Ni  0.62353978  0.40814095  0.12737497     1.26060
H598        H  0.67859113  0.35661669  0.12712856     0.37780
O599        O  0.59572541  0.29538871  0.40262732    -0.82180
O600        O  0.60518748  0.46092913  0.37276222    -0.66860
O601        O  0.64545578  0.35712362  0.38400604    -1.13470
C602        C  0.63840282  0.38435525  0.01216345     1.04710
O603        O  0.65388884  0.48356946  0.41616997    -0.80070
O604        O  0.71194569  0.43165573  0.44834342    -0.67650
Ni605      Ni  0.61539265  0.31728212  0.35723230     1.34870
C606        C  0.73112859  0.39874823  0.44323626     0.83450
O607        O  0.62802983  0.40469056  0.32408147    -0.80610
O608        O  0.63317071  0.34046692  0.31147033    -0.90890
C609        C  0.62800680  0.48839051  0.38780607     0.83020
O610        O  0.55323648  0.33722280  0.35183115    -0.69090
O611        O  0.64507513  0.41950708  0.00269368    -0.88380
C612        C  0.53331987  0.36774486  0.36322415     0.83850
C613        C  0.63322817  0.37605626  0.30166818     1.05420
H614        H  0.58651919  0.40860498  0.43751937     0.37220
O615        O  0.61956451  0.40798803  0.43040370    -1.11040
O616        O  0.70778479  0.36713683  0.44040547    -0.67690
Ni617      Ni  0.64058624  0.35531444  0.43678841     1.26350
O618        O  0.55637450  0.39638298  0.37601995    -0.67920
O619        O  0.63498347  0.35626993  0.48936369    -0.80210
C620        C  0.62719614  0.27888479  0.42166075     0.83240
O621        O  0.65640923  0.30022905  0.43920136    -0.67380
Ni622      Ni  0.64892541  0.44866728  0.45762053     1.27450
Ni623      Ni  0.62355547  0.40813436  0.37737802     1.26060
H624        H  0.67861075  0.35661169  0.37710909     0.37780
O625        O  0.15442729  0.52988621  0.04018739    -0.82180
O626        O  0.15666319  0.71313061  0.06358146    -0.66860
O627        O  0.12014968  0.60525273  0.05471542    -1.13470
C628        C  0.13346444  0.63716510  0.42595988     1.04710
O629        O  0.09599588  0.71797218  0.02693848    -0.80070
O630        O  0.05344634  0.67585056  0.47645994    -0.67650
Ni631      Ni  0.14971240  0.56469609  0.08174731     1.34870
C632        C  0.03352066  0.64559852  0.48858913     0.83450
O633        O  0.13554945  0.65698068  0.11367211    -0.80610
O634        O  0.14595778  0.59380627  0.12692187    -0.90890
C635        C  0.12727217  0.73443594  0.04628977     0.83020
O636        O  0.21260749  0.58197016  0.07210179    -0.69090
O637        O  0.13343512  0.67274931  0.43580304    -0.88380
C638        C  0.23169658  0.61492712  0.06680796     0.83850
C639        C  0.13896144  0.62890287  0.13644231     1.05420
H640        H  0.17888803  0.65677551  0.50132152     0.37220
O641        O  0.14576493  0.65621122  0.50830402    -1.11040
O642        O  0.05663552  0.61690863  0.50100396    -0.67690
Ni643      Ni  0.12375584  0.60514840  0.50169753     1.26350
O644        O  0.20830780  0.64648210  0.06438153    -0.67920
O645        O  0.12791224  0.60855644  0.44834106    -0.80210
C646        C  0.12816340  0.52496121  0.01203429     0.83240
O647        O  0.10520735  0.55234935  0.49713606    -0.67380
Ni648      Ni  0.11567172  0.69595151  0.48157882     1.27450
Ni649      Ni  0.14105272  0.65799053  0.06108228     1.26060
H650        H  0.08717138  0.60448931  0.06201013     0.37780
O651        O  0.15447217  0.52989139  0.29018454    -0.82180
O652        O  0.15668600  0.71313113  0.31358057    -0.66860
O653        O  0.12017457  0.60525230  0.30471559    -1.13470
C654        C  0.13346918  0.63716425  0.17596004     1.04710
O655        O  0.09601531  0.71797342  0.27694146    -0.80070
O656        O  0.05346001  0.67584650  0.22646932    -0.67650
Ni657      Ni  0.14973578  0.56469609  0.33174838     1.34870
C658        C  0.03353731  0.64559055  0.23859288     0.83450
O659        O  0.13557535  0.65698085  0.36367225    -0.80610
O660        O  0.14595852  0.59380359  0.37692406    -0.90890
C661        C  0.12729426  0.73443693  0.29629033     0.83020
O662        O  0.21263235  0.58197673  0.32211866    -0.69090
O663        O  0.13343891  0.67274827  0.18580349    -0.88380
C664        C  0.23172042  0.61493229  0.31681487     0.83850
C665        C  0.13896950  0.62890198  0.38644311     1.05420
H666        H  0.17890455  0.65677739  0.25131879     0.37220
O667        O  0.14578246  0.65621123  0.25830317    -1.11040
O668        O  0.05665472  0.61690045  0.25100483    -0.67690
Ni669      Ni  0.12377721  0.60514606  0.25169809     1.26350
O670        O  0.20833089  0.64648550  0.31437710    -0.67920
O671        O  0.12792793  0.60855437  0.19834157    -0.80210
C672        C  0.12820172  0.52495886  0.26203598     0.83240
O673        O  0.10523584  0.55234332  0.24713976    -0.67380
Ni674      Ni  0.11568413  0.69595083  0.23158071     1.27450
Ni675      Ni  0.14107553  0.65799087  0.31108184     1.26060
H676        H  0.08719623  0.60448894  0.31201074     0.37780
O677        O  0.15361645  0.48208371  0.21611769    -0.82180
O678        O  0.15731353  0.29947634  0.19206401    -0.66860
O679        O  0.11921832  0.40660491  0.20176217    -1.13470
C680        C  0.13277523  0.37484897  0.33028380     1.04710
O681        O  0.09718178  0.29200526  0.22930880    -0.80070
O682        O  0.05316974  0.33473046  0.27893491    -0.67650
Ni683      Ni  0.14799889  0.44752372  0.17449059     1.34870
C684        C  0.03316635  0.36556310  0.26834168     0.83450
O685        O  0.13534856  0.35521113  0.14257889    -0.80610
O686        O  0.14368109  0.41855886  0.12928993    -0.90890
C687        C  0.12811330  0.27712925  0.20838104     0.83020
O688        O  0.21131717  0.43093421  0.18297997    -0.69090
O689        O  0.13251345  0.33924913  0.32044344    -0.88380
C690        C  0.23092203  0.39829776  0.18848291     0.83850
C691        C  0.13788444  0.38329819  0.11979364     1.05420
H692        H  0.17861863  0.35527906  0.25478170     0.37220
O693        O  0.14546505  0.35564595  0.24787093    -1.11040
O694        O  0.05617667  0.39467773  0.25643844    -0.67690
Ni695      Ni  0.12332739  0.40668610  0.25472775     1.26350
O696        O  0.20795885  0.36654824  0.19176733    -0.67920
O697        O  0.12797073  0.40343208  0.30788904    -0.80210
C698        C  0.12793511  0.48689238  0.24458553     0.83240
O699        O  0.10489819  0.45948299  0.25951032    -0.67380
Ni700      Ni  0.11592267  0.31542765  0.27452936     1.27450
Ni701      Ni  0.14084232  0.35418341  0.19513184     1.26060
H702        H  0.08612412  0.40695879  0.19475461     0.37780
O703        O  0.15354250  0.48209865  0.46609628    -0.82180
O704        O  0.15724614  0.29947439  0.44206137    -0.66860
O705        O  0.11916820  0.40660679  0.45176614    -1.13470
C706        C  0.13281975  0.37485788  0.08028588     1.04710
O707        O  0.09714108  0.29200871  0.97933424    -0.80070
O708        O  0.05317135  0.33473974  0.02898220    -0.67650
Ni709      Ni  0.14794079  0.44752144  0.42448219     1.34870
C710        C  0.03316348  0.36556961  0.01838644     0.83450
O711        O  0.13525703  0.35520481  0.39258005    -0.80610
O712        O  0.14364015  0.41854602  0.37928789    -0.90890
C713        C  0.12805559  0.27712998  0.45839280     0.83020
O714        O  0.21125825  0.43093908  0.43298588    -0.69090
O715        O  0.13255437  0.33925756  0.07044744    -0.88380
C716        C  0.23086404  0.39829907  0.43846878     0.83850
C717        C  0.13782140  0.38328807  0.36979296     1.05420
H718        H  0.17860423  0.35528202  0.00476393     0.37220
O719        O  0.14544538  0.35564908  0.99786775    -1.11040
O720        O  0.05616823  0.39467960  0.00646789    -0.67690
Ni721      Ni  0.12331485  0.40668916  0.00473144     1.26350
O722        O  0.20790076  0.36654692  0.44173762    -0.67920
O723        O  0.12799505  0.40343875  0.05789147    -0.80210
C724        C  0.12789243  0.48689720  0.99458229     0.83240
O725        O  0.10488349  0.45948248  0.00952262    -0.67380
Ni726      Ni  0.11592121  0.31543402  0.02454395     1.27450
Ni727      Ni  0.14078415  0.35418301  0.44513089     1.26060
H728        H  0.08606984  0.40696330  0.44477118     0.37780
O729        O  0.36022980  0.48365862  0.16415019    -0.82180
O730        O  0.35781626  0.30048190  0.18751718    -0.66860
O731        O  0.39456596  0.40828832  0.17864137    -1.13470
C732        C  0.38137246  0.37642692  0.04987912     1.04710
O733        O  0.41841066  0.29541580  0.15078592    -0.80070
O734        O  0.46127300  0.33757373  0.10051282    -0.67650
Ni735      Ni  0.36518941  0.44891317  0.20574699     1.34870
C736        C  0.48115606  0.36791076  0.11252198     0.83450
O737        O  0.37924946  0.35661044  0.23758234    -0.80610
O738        O  0.36921765  0.41984123  0.25090340    -0.90890
C739        C  0.38706766  0.27907147  0.17017319     0.83020
O740        O  0.30216037  0.43163741  0.19656047    -0.69090
O741        O  0.38145082  0.34083888  0.05966939    -0.88380
C742        C  0.28299710  0.39866404  0.19145457     0.83850
C743        C  0.37601917  0.38471037  0.26037905     1.05420
H744        H  0.33566211  0.35677558  0.12529097     0.37220
O745        O  0.36882865  0.35733460  0.13223021    -1.11040
O746        O  0.45800763  0.39664354  0.12484592    -0.67690
Ni747      Ni  0.39090162  0.40840100  0.12564167     1.26350
O748        O  0.30637772  0.36714006  0.18861339    -0.67920
O749        O  0.38675155  0.40502720  0.07230739    -0.80210
C750        C  0.38650041  0.48858223  0.13597727     0.83240
O751        O  0.40950183  0.46118400  0.12110138    -0.67380
Ni752      Ni  0.39895732  0.31756755  0.10544958     1.27450
Ni753      Ni  0.37360053  0.35557935  0.18501227     1.26060
H754        H  0.42755665  0.40900811  0.18588545     0.37780
O755        O  0.36017950  0.48364416  0.41412736    -0.82180
O756        O  0.35774878  0.30048121  0.43751287    -0.66860
O757        O  0.39452182  0.40828267  0.42864704    -1.13470
C758        C  0.38142857  0.37641886  0.29988167     1.04710
O759        O  0.41837174  0.29540850  0.40081144    -0.80070
O760        O  0.46128166  0.33756009  0.35055994    -0.67650
Ni761      Ni  0.36513569  0.44891323  0.45573687     1.34870
C762        C  0.48116136  0.36789885  0.36256848     0.83450
O763        O  0.37915782  0.35661317  0.48758342    -0.80610
O764        O  0.36916488  0.41985073  0.50089962    -0.90890
C765        C  0.38701200  0.27906755  0.42018485     0.83020
O766        O  0.30210466  0.43163517  0.44655591    -0.69090
O767        O  0.38149833  0.34083092  0.30967289    -0.88380
C768        C  0.28294013  0.39866429  0.44143767     0.83850
C769        C  0.37594774  0.38471746  0.01037758     1.05420
H770        H  0.33565235  0.35677426  0.37527159     0.37220
O771        O  0.36881368  0.35733040  0.38222672    -1.11040
O772        O  0.45800881  0.39663474  0.37488121    -0.67690
Ni773      Ni  0.39090138  0.40839498  0.37564721     1.26350
O774        O  0.30632017  0.36714162  0.43858453    -0.67920
O775        O  0.38679269  0.40501986  0.32231142    -0.80210
C776        C  0.38648863  0.48857399  0.38597652     0.83240
O777        O  0.40951155  0.46117750  0.37111752    -0.67380
Ni778      Ni  0.39896024  0.31755958  0.35546398     1.27450
Ni779      Ni  0.37354378  0.35557711  0.43501123     1.26060
H780        H  0.42750713  0.40899844  0.43590625     0.37780
O781        O  0.36151860  0.53117791  0.08972089    -0.82180
O782        O  0.35715519  0.71406019  0.06587832    -0.66860
O783        O  0.39538460  0.60694641  0.07560398    -1.13470
C784        C  0.38131074  0.63879835  0.20413640     1.04710
O785        O  0.41703596  0.72192408  0.10330160    -0.80070
O786        O  0.46107775  0.67905381  0.15277701    -0.67650
Ni787      Ni  0.36638060  0.56606724  0.04830414     1.34870
C788        C  0.48113422  0.64816558  0.14232651     0.83450
O789        O  0.37937481  0.65839531  0.01646768    -0.80610
O790        O  0.36994518  0.59517915  0.00314540    -0.90890
C791        C  0.38620477  0.73656628  0.08215041     0.83020
O792        O  0.30321232  0.58255111  0.05768809    -0.69090
O793        O  0.38168767  0.67439361  0.19432135    -0.88380
C794        C  0.28368400  0.61524435  0.06311766     0.83850
C795        C  0.37625036  0.63036908  0.99365362     1.05420
H796        H  0.33581436  0.65835517  0.12856524     0.37220
O797        O  0.36896437  0.65799415  0.12170006    -1.11040
O798        O  0.45818393  0.61897739  0.13047560    -0.67690
Ni799      Ni  0.39103856  0.60694061  0.12858566     1.26350
O800        O  0.30666135  0.64704697  0.06570575    -0.67920
O801        O  0.38610399  0.61021113  0.18172363    -0.80210
C802        C  0.38674004  0.52661858  0.11845507     0.83240
O803        O  0.40944604  0.55415824  0.13348226    -0.67380
Ni804      Ni  0.39828436  0.69828724  0.14843808     1.27450
Ni805      Ni  0.37375275  0.65940310  0.06899237     1.26060
H806        H  0.42849570  0.60653285  0.06862797     0.37780
O807        O  0.36153621  0.53117138  0.33971229    -0.82180
O808        O  0.35719048  0.71406154  0.31588399    -0.66860
O809        O  0.39540572  0.60694233  0.32560431    -1.13470
C810        C  0.38131272  0.63879042  0.45413671     1.04710
O811        O  0.41706851  0.72192123  0.35331105    -0.80070
O812        O  0.46109677  0.67904077  0.40278602    -0.67650
Ni813      Ni  0.36639607  0.56606804  0.29830088     1.34870
C814        C  0.48115218  0.64815292  0.39233293     0.83450
O815        O  0.37940242  0.65839906  0.26646980    -0.80610
O816        O  0.36995253  0.59518599  0.25314514    -0.90890
C817        C  0.38624056  0.73656573  0.33215844     0.83020
O818        O  0.30323258  0.58255399  0.30769522    -0.69090
O819        O  0.38169758  0.67438570  0.44432254    -0.88380
C820        C  0.28370733  0.61524860  0.31312282     0.83850
C821        C  0.37626259  0.63037555  0.24365429     1.05420
H822        H  0.33583731  0.65835358  0.37856433     0.37220
O823        O  0.36898807  0.65799035  0.37170118    -1.11040
O824        O  0.45820080  0.61896554  0.38048098    -0.67690
Ni825      Ni  0.39105355  0.60693405  0.37858649     1.26350
O826        O  0.30668702  0.64705087  0.31570554    -0.67920
O827        O  0.38611079  0.61020313  0.43172448    -0.80210
C828        C  0.38674367  0.52661084  0.36845353     0.83240
O829        O  0.40945088  0.55414822  0.38348401    -0.67380
Ni830      Ni  0.39830692  0.69828065  0.39844340     1.27450
Ni831      Ni  0.37378032  0.65940233  0.31899456     1.26060
H832        H  0.42851729  0.60652591  0.31863007     0.37780
O833        O  0.65341839  0.98362564  0.58550482    -0.82180
O834        O  0.65580343  0.80016152  0.56237643    -0.66860
O835        O  0.61915308  0.90799011  0.57120537    -1.13470
C836        C  0.63257735  0.87600332  0.69993046     1.04710
O837        O  0.59492802  0.79549635  0.59876476    -0.80070
O838        O  0.55227320  0.83738553  0.64943024    -0.67650
Ni839      Ni  0.64877718  0.94858562  0.54407166     1.34870
C840        C  0.53254763  0.86790015  0.63786612     0.83450
O841        O  0.63451242  0.85619133  0.51221922    -0.80610
O842        O  0.64514100  0.91935779  0.99895779    -0.90890
C843        C  0.62656671  0.77889202  0.57995585     0.83020
O844        O  0.71165378  0.93148639  0.55380449    -0.69090
O845        O  0.63210246  0.84041266  0.69009309    -0.88380
C846        C  0.73072233  0.89856150  0.55904041     0.83850
C847        C  0.63806628  0.88425543  0.98944373     1.05420
H848        H  0.67789854  0.85644051  0.62455552     0.37220
O849        O  0.64474443  0.85705403  0.61758450    -1.11040
O850        O  0.55581331  0.89654468  0.62536747    -0.67690
Ni851      Ni  0.62303653  0.90811388  0.62424458     1.26350
O852        O  0.70730338  0.86695198  0.56142797    -0.67920
O853        O  0.62746071  0.90465467  0.67755648    -0.80210
C854        C  0.62764432  0.98838682  0.61396508     0.83240
O855        O  0.60482164  0.96092047  0.62896294    -0.67380
Ni856      Ni  0.61439431  0.81729699  0.64425389     1.27450
Ni857      Ni  0.64004542  0.85525781  0.56480079     1.26060
H858        H  0.58614087  0.90868494  0.56402998     0.37780
O859        O  0.65348263  0.98361971  0.83550672    -0.82180
O860        O  0.65581815  0.80016123  0.81237512    -0.66860
O861        O  0.61918197  0.90799334  0.82120741    -1.13470
C862        C  0.63259933  0.87600332  0.94993094     1.04710
O863        O  0.59494380  0.79549954  0.84876414    -0.80070
O864        O  0.55229505  0.83739567  0.89942639    -0.67650
Ni865      Ni  0.64880090  0.94858719  0.79406892     1.34870
C866        C  0.53257412  0.86791490  0.88786839     0.83450
O867        O  0.63453026  0.85619335  0.76221878    -0.80610
O868        O  0.64512504  0.91936329  0.74895380    -0.90890
C869        C  0.62658117  0.77889321  0.82995576     0.83020
O870        O  0.71167872  0.93147634  0.80377497    -0.69090
O871        O  0.63211929  0.84041313  0.94009263    -0.88380
C872        C  0.73074439  0.89855312  0.80902540     0.83850
C873        C  0.63805935  0.88425859  0.73944205     1.05420
H874        H  0.67792047  0.85643590  0.87455472     0.37220
O875        O  0.64476676  0.85705414  0.86758457    -1.11040
O876        O  0.55584379  0.89655969  0.87537377    -0.67690
Ni877      Ni  0.62307077  0.90811811  0.87424595     1.26350
O878        O  0.70732396  0.86694625  0.81142865    -0.67920
O879        O  0.62749605  0.90465684  0.92755741    -0.80210
C880        C  0.62770910  0.98839101  0.86396603     0.83240
O881        O  0.60487322  0.96093094  0.87896363    -0.67380
Ni882      Ni  0.61441163  0.81729940  0.89425306     1.27450
Ni883      Ni  0.64006574  0.85525880  0.81480077     1.26060
H884        H  0.58616836  0.90868981  0.81403517     0.37780
O885        O  0.86036593  0.98247258  0.53586777    -0.82180
O886        O  0.85648160  0.79983008  0.55995031    -0.66860
O887        O  0.89443892  0.90702605  0.55020637    -1.13470
C888        C  0.88080564  0.87526041  0.92164006     1.04710
O889        O  0.91620935  0.79179806  0.02228913    -0.80070
O890        O  0.96034571  0.83498730  0.97318097    -0.67650
Ni891      Ni  0.86542918  0.94783713  0.57742475     1.34870
C892        C  0.98048216  0.86568254  0.98419271     0.83450
O893        O  0.87841042  0.85562929  0.60931445    -0.80610
O894        O  0.86929795  0.91886445  0.62264492    -0.90890
C895        C  0.88574073  0.77734495  0.54395625     0.83020
O896        O  0.80224294  0.93107966  0.56827377    -0.69090
O897        O  0.88096081  0.83967024  0.93144771    -0.88380
C898        C  0.78272328  0.89835553  0.56271612     0.83850
C899        C  0.87555958  0.88368016  0.63212899     1.05420
H900        H  0.83505567  0.85555434  0.99716563     0.37220
O901        O  0.86820366  0.85592339  0.00406755    -1.11040
O902        O  0.95756349  0.89491732  0.99582915    -0.67690
Ni903      Ni  0.89047930  0.90702672  0.99724990     1.26350
O904        O  0.80572323  0.86663473  0.55998390    -0.67920
O905        O  0.88590892  0.90381659  0.94406192    -0.80210
C906        C  0.88619433  0.98727527  0.00747463     0.83240
O907        O  0.90911572  0.95984570  0.99253371    -0.67380
Ni908      Ni  0.89745541  0.81568915  0.97728332     1.27450
Ni909      Ni  0.87286642  0.85454135  0.55677549     1.26060
H910        H  0.92750551  0.90753222  0.55730352     0.37780
O911        O  0.86036551  0.98247348  0.78586754    -0.82180
O912        O  0.85651389  0.79982990  0.80994751    -0.66860
O913        O  0.89445704  0.90703077  0.80020485    -1.13470
C914        C  0.88081740  0.87526205  0.67163994     1.04710
O915        O  0.91624324  0.79179878  0.77228739    -0.80070
O916        O  0.96037324  0.83499769  0.72318251    -0.67650
Ni917      Ni  0.86543788  0.94783791  0.82742334     1.34870
C918        C  0.98050618  0.86569523  0.73419262     0.83450
O919        O  0.87842557  0.85563059  0.85931319    -0.80610
O920        O  0.86930590  0.91886476  0.87264342    -0.90890
C921        C  0.88577418  0.77734514  0.79395412     0.83020
O922        O  0.80225794  0.93107334  0.81826720    -0.69090
O923        O  0.88098645  0.83967203  0.68144772    -0.88380
C924        C  0.78274347  0.89834838  0.81270555     0.83850
C925        C  0.87556445  0.88368031  0.88212800     1.05420
H926        H  0.83508504  0.85555115  0.74716369     0.37220
O927        O  0.86823275  0.85592417  0.75406630    -1.11040
O928        O  0.95758417  0.89493069  0.74582483    -0.67690
Ni929      Ni  0.89049602  0.90703131  0.74724781     1.26350
O930        O  0.80574658  0.86662910  0.80997595    -0.67920
O931        O  0.88592042  0.90381963  0.69406032    -0.80210
C932        C  0.88618315  0.98728045  0.75746964     0.83240
O933        O  0.90911583  0.95985602  0.74252951    -0.67380
Ni934      Ni  0.89748699  0.81569168  0.72728240     1.27450
Ni935      Ni  0.87289157  0.85454279  0.80677366     1.26060
H936        H  0.92752356  0.90754073  0.80730177     0.37780
O937        O  0.86001649  0.03035777  0.71192757    -0.82180
O938        O  0.85776146  0.21353521  0.68894045    -0.66860
O939        O  0.89461781  0.10579075  0.69763383    -1.13470
C940        C  0.88144723  0.13765531  0.82639749     1.04710
O941        O  0.91861412  0.21838336  0.72534729    -0.80070
O942        O  0.96144447  0.17645429  0.77584798    -0.67650
Ni943      Ni  0.86532600  0.06510557  0.67041545     1.34870
C944        C  0.98122128  0.14593173  0.76429636     0.83450
O945        O  0.87907829  0.15748634  0.63870219    -0.80610
O946        O  0.86956458  0.09418664  0.62533859    -0.90890
C947        C  0.88703576  0.23488220  0.70641514     0.83020
O948        O  0.80225820  0.08218032  0.67938792    -0.69090
O949        O  0.88170572  0.17324650  0.81661251    -0.88380
C950        C  0.78306369  0.11503884  0.68473526     0.83850
C951        C  0.87605345  0.12936746  0.61589358     1.05420
H952        H  0.83582662  0.15719355  0.75109262     0.37220
O953        O  0.86894943  0.15664200  0.74410539    -1.11040
O954        O  0.95800602  0.11726249  0.75176534    -0.67690
Ni955      Ni  0.89081337  0.10559597  0.75065107     1.26350
O956        O  0.80639791  0.14662598  0.68784114    -0.67920
O957        O  0.88653199  0.10901324  0.80397039    -0.80210
C958        C  0.88616592  0.02538019  0.74011090     0.83240
O959        O  0.90913518  0.05276784  0.75514650    -0.67380
Ni960      Ni  0.89924378  0.19644165  0.77079695     1.27450
Ni961      Ni  0.87360473  0.15845300  0.69130535     1.26060
H962        H  0.92764084  0.10520186  0.69045346     0.37780
O963        O  0.86010336  0.03034050  0.96190103    -0.82180
O964        O  0.85785920  0.21353721  0.93893325    -0.66860
O965        O  0.89469226  0.10578733  0.94764283    -1.13470
C966        C  0.88137861  0.13764686  0.57640108     1.04710
O967        O  0.91866975  0.21838729  0.97538425    -0.80070
O968        O  0.96144443  0.17644716  0.52590748    -0.67650
Ni969      Ni  0.86541038  0.06510839  0.92040628     1.34870
C970        C  0.98122644  0.14592612  0.51435689     0.83450
O971        O  0.87921104  0.15749165  0.88870319    -0.80610
O972        O  0.86963836  0.09420049  0.87533700    -0.90890
C973        C  0.88711239  0.23488463  0.95642905     0.83020
O974        O  0.80234637  0.08217930  0.92939283    -0.69090
O975        O  0.88165348  0.17323861  0.56661873    -0.88380
C976        C  0.78315356  0.11504198  0.93472003     0.83850
C977        C  0.87615197  0.12937738  0.86589268     1.05420
H978        H  0.83585211  0.15719579  0.50106644     0.37220
O979        O  0.86898222  0.15664148  0.49410081    -1.11040
O980        O  0.95801740  0.11725831  0.50181573    -0.67690
Ni981      Ni  0.89082744  0.10559305  0.50065965     1.26350
O982        O  0.80648830  0.14663145  0.93780406    -0.67920
O983        O  0.88648573  0.10900695  0.55397560    -0.80210
C984        C  0.88619808  0.02537388  0.99011569     0.83240
O985        O  0.90913772  0.05276495  0.50517198    -0.67380
Ni986      Ni  0.89924796  0.19643768  0.52081787     1.27450
Ni987      Ni  0.87369328  0.15845392  0.94130408     1.26060
H988        H  0.92772233  0.10519288  0.94048269     0.37780
O989        O  0.65318152  0.03106890  0.66013967    -0.82180
O990        O  0.65756479  0.21385591  0.68451890    -0.66860
O991        O  0.61934584  0.10666848  0.67457010    -1.13470
C992        C  0.63322337  0.13843442  0.54606705     1.04710
O993        O  0.59792489  0.22180112  0.64686459    -0.80070
O994        O  0.55377978  0.17876097  0.59761536    -0.67650
Ni995      Ni  0.64810618  0.06576981  0.70175746     1.34870
C996        C  0.53361422  0.14801840  0.60844018     0.83450
O997        O  0.63523203  0.15805672  0.73377529    -0.80610
O998        O  0.64426175  0.09479361  0.74700111    -0.90890
C999        C  0.62849786  0.23635390  0.66836852     0.83020
O1000       O  0.71138949  0.08242540  0.69285321    -0.69090
O1001       O  0.63315237  0.17402666  0.55591522    -0.88380
C1002       C  0.73100231  0.11518634  0.68770438     0.83850
C1003       C  0.63815202  0.13000111  0.75654141     1.05420
H1004       H  0.67906349  0.15809527  0.62173131     0.37220
O1005       O  0.64589314  0.15774254  0.62855617    -1.11040
O1006       O  0.55648625  0.11879174  0.62008145    -0.67690
Ni1007     Ni  0.62353554  0.10667282  0.62161830     1.26350
O1008       O  0.70805953  0.14691521  0.68480784    -0.67920
O1009       O  0.62822745  0.10988731  0.56846637    -0.80210
C1010       C  0.62763243  0.02641564  0.63156471     0.83240
O1011       O  0.60481534  0.05391299  0.61671385    -0.67380
Ni1012     Ni  0.61668561  0.19799250  0.60179969     1.27450
Ni1013     Ni  0.64099785  0.15913987  0.68126841     1.26060
H1014       H  0.58625694  0.10621153  0.68159639     0.37780
O1015       O  0.65330390  0.03109153  0.91011110    -0.82180
O1016       O  0.65765944  0.21385604  0.93451682    -0.66860
O1017       O  0.61943065  0.10667127  0.92457553    -1.13470
C1018       C  0.63318020  0.13844671  0.79606958     1.04710
O1019       O  0.59798579  0.22179925  0.89689630    -0.80070
O1020       O  0.55379842  0.17876797  0.84766964    -0.67650
Ni1021     Ni  0.64819738  0.06576727  0.95174795     1.34870
C1022       C  0.53363890  0.14802386  0.85849637     0.83450
O1023       O  0.63535945  0.15804903  0.98377744    -0.80610
O1024       O  0.64431656  0.09477604  0.99700035    -0.90890
C1025       C  0.62857653  0.23635331  0.91838335     0.83020
O1026       O  0.71148263  0.08243533  0.94287132    -0.69090
O1027       O  0.63312271  0.17403827  0.80592044    -0.88380
C1028       C  0.73109370  0.11519162  0.93769354     0.83850
C1029       C  0.63823278  0.12998751  0.00654145     1.05420
H1030       H  0.67910127  0.15810008  0.87171005     0.37220
O1031       O  0.64593783  0.15774703  0.87855264    -1.11040
O1032       O  0.55651765  0.11879393  0.87012329    -0.67690
Ni1033     Ni  0.62357145  0.10667727  0.87162399     1.26350
O1034       O  0.70815072  0.14691701  0.93477299    -0.67920
O1035       O  0.62821076  0.10989703  0.81846995    -0.80210
C1036       C  0.62770867  0.02642344  0.88156245     0.83240
O1037       O  0.60485385  0.05391328  0.86673230    -0.67380
Ni1038     Ni  0.61670508  0.19799928  0.85181781     1.27450
Ni1039     Ni  0.64108806  0.15914024  0.93126803     1.26060
H1040       H  0.58634670  0.10621706  0.93161782     0.37780
O1041       O  0.09697095  0.79174022  0.52300657    -0.82180
O1042       O  0.10468072  0.95949982  0.99289590    -0.66860
O1043       O  0.14505094  0.85559690  0.00448313    -1.13470
C1044       C  0.13779276  0.88324154  0.63258395     1.04710
O1045       O  0.15298106  0.98227714  0.53649746    -0.80070
O1046       O  0.21104091  0.93094398  0.56875809    -0.67650
Ni1047     Ni  0.11549703  0.81535907  0.97781690     1.34870
C1048       C  0.23055590  0.89829236  0.56308709     0.83450
O1049       O  0.12779375  0.90342765  0.94451528    -0.80610
O1050       O  0.13194201  0.83923601  0.93189458    -0.90890
C1051       C  0.12752078  0.98697283  0.50791778     0.83020
O1052       O  0.05269455  0.83466737  0.97376917    -0.69090
O1053       O  0.14398403  0.91844884  0.62311224    -0.88380
C1054       C  0.03276827  0.86554307  0.98441071     0.83850
C1055       C  0.13252018  0.87483124  0.92209368     1.05420
H1056       H  0.08578076  0.90703739  0.55770329     0.37220
O1057       O  0.11886766  0.90663453  0.55065983    -1.11040
O1058       O  0.20757337  0.86650983  0.56031755    -0.67690
Ni1059     Ni  0.14046685  0.85417465  0.55720685     1.26350
O1060       O  0.05586848  0.89473972  0.99603937    -0.67920
O1061       O  0.13498580  0.85518797  0.60976199    -0.80210
C1062       C  0.12793435  0.77703368  0.54399515     0.83240
O1063       O  0.15704636  0.79950361  0.56024760    -0.67380
Ni1064     Ni  0.14785582  0.94750212  0.57795433     1.27450
Ni1065     Ni  0.12303235  0.90668391  0.99768125     1.26060
H1066       H  0.17816941  0.85519032  0.99752906     0.37780
O1067       O  0.09699356  0.79174244  0.77300845    -0.82180
O1068       O  0.10471779  0.95950890  0.74290110    -0.66860
O1069       O  0.14507532  0.85559918  0.75448271    -1.13470
C1070       C  0.13779683  0.88324153  0.88258518     1.04710
O1071       O  0.15303418  0.98227326  0.78649770    -0.80070
O1072       O  0.21106939  0.93093742  0.81878131    -0.67650
Ni1073     Ni  0.11551613  0.81536272  0.72781857     1.34870
C1074       C  0.23058315  0.89828744  0.81309915     0.83450
O1075       O  0.12781804  0.90343228  0.69451576    -0.80610
O1076       O  0.13195486  0.83923949  0.68189564    -0.90890
C1077       C  0.12756748  0.98697765  0.75792234     0.83020
O1078       O  0.05271616  0.83467603  0.72377665    -0.69090
O1079       O  0.14398176  0.91845083  0.87311604    -0.88380
C1080       C  0.03279256  0.86555477  0.73441347     0.83850
C1081       C  0.13253282  0.87483431  0.67209398     1.05420
H1082       H  0.08581032  0.90703962  0.80770320     0.37220
O1083       O  0.11889769  0.90663669  0.80066032    -1.11040
O1084       O  0.20759969  0.86650712  0.81031612    -0.67690
Ni1085     Ni  0.14049311  0.85417564  0.80720659     1.26350
O1086       O  0.05589510  0.89475142  0.74603966    -0.67920
O1087       O  0.13501106  0.85518775  0.85976187    -0.80210
C1088       C  0.12795789  0.77703486  0.79399540     0.83240
O1089       O  0.15707135  0.79950417  0.81024677    -0.67380
Ni1090     Ni  0.14788229  0.94750286  0.82795794     1.27450
Ni1091     Ni  0.12306133  0.90668887  0.74768227     1.26060
H1092       H  0.17819311  0.85519038  0.74752776     0.37780
O1093       O  0.41816523  0.79567099  0.59904223    -0.82180
O1094       O  0.40880434  0.96116004  0.62897534    -0.66860
O1095       O  0.36827723  0.85734639  0.61758951    -1.13470
C1096       C  0.37496815  0.88459195  0.48950273     1.04710
O1097       O  0.36013546  0.98388645  0.58565896    -0.80070
O1098       O  0.30160674  0.93165510  0.55423711    -0.67650
Ni1099     Ni  0.39822152  0.81758746  0.64437373     1.34870
C1100       C  0.28253330  0.89864859  0.55930173     0.83450
O1101       O  0.38586659  0.90493860  0.67761009    -0.80610
O1102       O  0.38021743  0.84074079  0.69011209    -0.90890
C1103       C  0.38608658  0.98863831  0.61402004     0.83020
O1104       O  0.46037568  0.83770234  0.64983580    -0.69090
O1105       O  0.36772906  0.91964701  0.49904788    -0.88380
C1106       C  0.48038760  0.86801790  0.63794953     0.83850
C1107       C  0.38028803  0.87632274  0.69997508     1.05420
H1108       H  0.42708969  0.90913180  0.56402935     0.37220
O1109       O  0.39408488  0.90833204  0.57124743    -1.11040
O1110       O  0.30593135  0.86706947  0.56139861    -0.67690
Ni1111     Ni  0.37318777  0.85557139  0.56482822     1.26350
O1112       O  0.45737843  0.89664031  0.62526301    -0.67920
O1113       O  0.37881770  0.85655924  0.51226544    -0.80210
C1114       C  0.38695543  0.77915230  0.57967267     0.83240
O1115       O  0.35760721  0.80042227  0.56229737    -0.67380
Ni1116     Ni  0.36442808  0.94886531  0.54420087     1.27450
Ni1117     Ni  0.39025271  0.90838993  0.62427825     1.26060
H1118       H  0.33512602  0.85678510  0.62449186     0.37780
O1119       O  0.41820016  0.79567140  0.84905399    -0.82180
O1120       O  0.40881763  0.96117379  0.87897090    -0.66860
O1121       O  0.36830807  0.85735305  0.86759186    -1.13470
C1122       C  0.37497458  0.88457907  0.73950365     1.04710
O1123       O  0.36015912  0.98389375  0.83564414    -0.80070
O1124       O  0.30162998  0.93165186  0.80424670    -0.67650
Ni1125     Ni  0.39825158  0.81759767  0.89438052     1.34870
C1126       C  0.28255973  0.89864445  0.80931128     0.83450
O1127       O  0.38588221  0.90495361  0.92760987    -0.80610
O1128       O  0.38023901  0.84075581  0.94011372    -0.90890
C1129       C  0.38609688  0.98864843  0.86401177     0.83020
O1130       O  0.46040278  0.83771929  0.89984157    -0.69090
O1131       O  0.36773184  0.91963404  0.74904670    -0.88380
C1132       C  0.48041374  0.86803488  0.88795371     0.83850
C1133       C  0.38029947  0.87633803  0.94997498     1.05420
H1134       H  0.42711564  0.90913766  0.81402774     0.37220
O1135       O  0.39411092  0.90833575  0.82124537    -1.11040
O1136       O  0.30595993  0.86706581  0.81140264    -0.67690
Ni1137     Ni  0.37321803  0.85557173  0.81483185     1.26350
O1138       O  0.45740358  0.89665650  0.87526631    -0.67920
O1139       O  0.37884315  0.85655082  0.76226877    -0.80210
C1140       C  0.38699146  0.77915234  0.82968307     0.83240
O1141       O  0.35764237  0.80042160  0.81230768    -0.67380
Ni1142     Ni  0.36444532  0.94886208  0.79419427     1.27450
Ni1143     Ni  0.39027551  0.90839990  0.87427702     1.26060
H1144       H  0.33515656  0.85679023  0.87449373     0.37780
O1145       O  0.41717371  0.22165843  0.64696535    -0.82180
O1146       O  0.40954306  0.05407132  0.61675023    -0.66860
O1147       O  0.36896435  0.15791207  0.62841182    -1.13470
C1148       C  0.37671788  0.13020453  0.75648034     1.04710
O1149       O  0.36074743  0.03145148  0.66007459    -0.80070
O1150       O  0.30311460  0.08260317  0.69337120    -0.67650
Ni1151     Ni  0.39858870  0.19811648  0.60175604     1.34870
C1152       C  0.28351113  0.11524684  0.68789283     0.83450
O1153       O  0.38654672  0.11007402  0.56839297    -0.80610
O1154       O  0.38216789  0.17424026  0.55581526    -0.90890
C1155       C  0.38640451  0.02666714  0.63157909     0.83020
O1156       O  0.46140247  0.17885292  0.59764726    -0.69090
O1157       O  0.37090027  0.09493748  0.74698029    -0.88380
C1158       C  0.48134201  0.14806688  0.60844022     0.83850
C1159       C  0.38178495  0.13863955  0.54598562     1.05420
H1160       H  0.42825119  0.10657135  0.68154680     0.37220
O1161       O  0.39517065  0.10692757  0.67451062    -1.11040
O1162       O  0.30647825  0.14698839  0.68455449    -0.67690
Ni1163     Ni  0.37358677  0.15935478  0.68115221     1.26350
O1164       O  0.45824689  0.11887637  0.62005173    -0.67920
O1165       O  0.37914766  0.15830306  0.73369961    -0.80210
C1166       C  0.38625826  0.23646477  0.66795195     0.83240
O1167       O  0.35709723  0.21406699  0.68425050    -0.67380
Ni1168     Ni  0.36644836  0.06598260  0.70175601     1.27450
Ni1169     Ni  0.39110997  0.10685560  0.62155601     1.26060
H1170       H  0.33580901  0.15829256  0.62149315     0.37780
O1171       O  0.41714960  0.22165171  0.89700970    -0.82180
O1172       O  0.40956639  0.05407822  0.86676838    -0.66860
O1173       O  0.36896095  0.15791578  0.87840661    -1.13470
C1174       C  0.37661167  0.13018510  0.00647758     1.04710
O1175       O  0.36068032  0.03146993  0.91003561    -0.80070
O1176       O  0.30303997  0.08260274  0.94335524    -0.67650
Ni1177     Ni  0.39861669  0.19812517  0.85178052     1.34870
C1178       C  0.28343733  0.11524348  0.93785987     0.83450
O1179       O  0.38662256  0.11008968  0.81839609    -0.80610
O1180       O  0.38224897  0.17425845  0.80582315    -0.90890
C1181       C  0.38639452  0.02667720  0.88157187     0.83020
O1182       O  0.46143262  0.17886253  0.84770680    -0.69090
O1183       O  0.37082066  0.09491551  0.99697299    -0.88380
C1184       C  0.48136630  0.14807446  0.85850030     0.83850
C1185       C  0.38187758  0.13865846  0.79598946     1.05420
H1186       H  0.42818874  0.10657603  0.93157711     0.37220
O1187       O  0.39511639  0.10692892  0.92451757    -1.11040
O1188       O  0.30640615  0.14698249  0.93450744    -0.67690
Ni1189     Ni  0.37351817  0.15935154  0.93115068     1.26350
O1190       O  0.45826424  0.11888368  0.87010307    -0.67920
O1191       O  0.37902055  0.15828910  0.98370101    -0.80210
C1192       C  0.38620689  0.23646038  0.91797026     0.83240
O1193       O  0.35702278  0.21406330  0.93424490    -0.67380
Ni1194     Ni  0.36637351  0.06597657  0.95173731     1.27450
Ni1195     Ni  0.39112342  0.10686244  0.87156172     1.26060
H1196       H  0.33581367  0.15829468  0.87146322     0.37780
O1197       O  0.09611278  0.21821971  0.72582562    -0.82180
O1198       O  0.10482754  0.05243511  0.75541455    -0.66860
O1199       O  0.14565665  0.15625210  0.74431591    -1.13470
C1200       C  0.13849143  0.12889047  0.61616837     1.04710
O1201       O  0.15418089  0.03001695  0.71239248    -0.80070
O1202       O  0.21223402  0.08194222  0.67991340    -0.67650
Ni1203     Ni  0.11571700  0.19607123  0.77112768     1.34870
C1204       C  0.23142825  0.11490196  0.68501080     0.83450
O1205       O  0.12767310  0.10860304  0.80424229    -0.80610
O1206       O  0.13332807  0.17278653  0.81686562    -0.90890
C1207       C  0.12782528  0.02504849  0.74050057     0.83020
O1208       O  0.05341613  0.17612691  0.77631284    -0.69090
O1209       O  0.14516824  0.09374966  0.62564307    -0.88380
C1210       C  0.03338962  0.14579042  0.76445301     0.83850
C1211       C  0.13315561  0.13720022  0.82666454     1.05420
H1212       H  0.08680925  0.10464366  0.69069122     0.37220
O1213       O  0.11981204  0.10533979  0.69791081    -1.11040
O1214       O  0.20806946  0.14642991  0.68791421    -0.67690
Ni1215     Ni  0.14085349  0.15801896  0.69153611     1.26350
O1216       O  0.05638952  0.11708411  0.75187467    -0.67920
O1217       O  0.13524413  0.15699017  0.63896423    -0.80210
C1218       C  0.12739119  0.23452274  0.70633899     0.83240
O1219       O  0.15665027  0.21309593  0.68902196    -0.67380
Ni1220     Ni  0.14917750  0.06470775  0.67079491     1.27450
Ni1221     Ni  0.12349033  0.10522092  0.75091229     1.26060
H1222       H  0.17882835  0.15674875  0.75122938     0.37780
O1223       O  0.09607476  0.21822039  0.97586247    -0.82180
O1224       O  0.10481455  0.05243502  0.50543066    -0.66860
O1225       O  0.14564016  0.15624728  0.49431112    -1.13470
C1226       C  0.13839946  0.12890528  0.86616696     1.04710
O1227       O  0.15408632  0.02999665  0.96236043    -0.80070
O1228       O  0.21215526  0.08193513  0.92991011    -0.67650
Ni1229     Ni  0.11572775  0.19606288  0.52114814     1.34870
C1230       C  0.23135291  0.11489834  0.93498229     0.83450
O1231       O  0.12771899  0.10859183  0.55424565    -0.80610
O1232       O  0.13339152  0.17277288  0.56687091    -0.90890
C1233       C  0.12777317  0.02504105  0.99049417     0.83020
O1234       O  0.05342895  0.17611809  0.52637255    -0.69090
O1235       O  0.14510176  0.09376785  0.87563879    -0.88380
C1236       C  0.03339444  0.14578513  0.51451181     0.83850
C1237       C  0.13322592  0.13718604  0.57666732     1.05420
H1238       H  0.08673879  0.10464022  0.94071548     0.37220
O1239       O  0.11974782  0.10533817  0.94791620    -1.11040
O1240       O  0.20799565  0.14642941  0.93787030    -0.67690
Ni1241     Ni  0.14078166  0.15801951  0.94153465     1.26350
O1242       O  0.05638593  0.11708255  0.50191798    -0.67920
O1243       O  0.13512247  0.15699935  0.88896584    -0.80210
C1244       C  0.12733228  0.23452310  0.95635476     0.83240
O1245       O  0.15657311  0.21309685  0.93901804    -0.67380
Ni1246     Ni  0.14909692  0.06471103  0.92078083     1.27450
Ni1247     Ni  0.12348172  0.10521618  0.50091720     1.26060
H1248       H  0.17881979  0.15674343  0.50120370     0.37780
O1249       O  0.91634641  0.29196760  0.73109456    -0.82180
O1250       O  0.90956454  0.45992619  0.76112553    -0.66860
O1251       O  0.86847715  0.35603914  0.74953009    -1.13470
C1252       C  0.87623949  0.38384401  0.62148721     1.04710
O1253       O  0.86059989  0.48249413  0.71798615    -0.80070
O1254       O  0.80273896  0.43126172  0.68483923    -0.67650
Ni1255     Ni  0.89787677  0.31581660  0.77620428     1.34870
C1256       C  0.78311895  0.39855683  0.69026833     0.83450
O1257       O  0.88644910  0.40394142  0.80955397    -0.80610
O1258       O  0.88166608  0.33980194  0.82213315    -0.90890
C1259       C  0.88649981  0.48733161  0.74633596     0.83020
O1260       O  0.96082352  0.33505375  0.78002279    -0.69090
O1261       O  0.87035175  0.41908397  0.63100815    -0.88380
C1262       C  0.98089788  0.36573885  0.76894519     0.83850
C1263       C  0.88149629  0.37539419  0.83196749     1.05420
H1264       H  0.92782817  0.40751324  0.69630322     0.37220
O1265       O  0.89477324  0.40708731  0.70342634    -1.11040
O1266       O  0.80605131  0.36685673  0.69345378    -0.67690
Ni1267     Ni  0.87311872  0.35463301  0.69679673     1.26350
O1268       O  0.95791848  0.39501905  0.75757209    -0.67920
O1269       O  0.87870435  0.35574524  0.64425592    -0.80210
C1270       C  0.88566104  0.27741422  0.70969159     0.83240
O1271       O  0.85653462  0.29991294  0.69360440    -0.67380
Ni1272     Ni  0.86606752  0.44800075  0.67627133     1.27450
Ni1273     Ni  0.89086154  0.40712897  0.75636990     1.26060
H1274       H  0.83534320  0.35567568  0.75645979     0.37780
O1275       O  0.91639388  0.29197407  0.48112173    -0.82180
O1276       O  0.90956160  0.45993016  0.51114470    -0.66860
O1277       O  0.86849709  0.35604235  0.49952541    -1.13470
C1278       C  0.87631891  0.38383719  0.87148581     1.04710
O1279       O  0.86066552  0.48251041  0.96796289    -0.80070
O1280       O  0.80280521  0.43126596  0.93483891    -0.67650
Ni1281     Ni  0.89787550  0.31582333  0.52621928     1.34870
C1282       C  0.78318609  0.39855777  0.94025114     0.83450
O1283       O  0.88640997  0.40394685  0.55955823    -0.80610
O1284       O  0.88161382  0.33980854  0.57213697    -0.90890
C1285       C  0.88652202  0.48733871  0.49633733     0.83020
O1286       O  0.96081742  0.33506544  0.53007466    -0.69090
O1287       O  0.87040888  0.41907437  0.88100507    -0.88380
C1288       C  0.98089591  0.36574706  0.51899285     0.83850
C1289       C  0.88143665  0.37540092  0.58197026     1.05420
H1290       H  0.92788659  0.40752307  0.94632576     0.37220
O1291       O  0.89482609  0.40709270  0.95343271    -1.11040
O1292       O  0.80611862  0.36685521  0.94342025    -0.67690
Ni1293     Ni  0.87318547  0.35463471  0.94679482     1.26350
O1294       O  0.95792139  0.39502456  0.50760800    -0.67920
O1295       O  0.87881026  0.35574248  0.89425660    -0.80210
C1296       C  0.88573104  0.27741700  0.95970166     0.83240
O1297       O  0.85661506  0.29991209  0.94359775    -0.67380
Ni1298     Ni  0.86613135  0.44800097  0.92626182     1.27450
Ni1299     Ni  0.89086707  0.40713350  0.50637597     1.26060
H1300       H  0.83535699  0.35567647  0.50643731     0.37780
O1301       O  0.91910810  0.71828402  0.52886390    -0.82180
O1302       O  0.90918306  0.55287903  0.49871480    -0.66860
O1303       O  0.86925699  0.65674466  0.51009488    -1.13470
C1304       C  0.87592696  0.62959068  0.63823841     1.04710
O1305       O  0.86070000  0.53019835  0.54226627    -0.80070
O1306       O  0.80244256  0.58231240  0.57390447    -0.67650
Ni1307     Ni  0.89948246  0.69652645  0.98339643     1.34870
C1308       C  0.78335169  0.61522796  0.56867483     0.83450
O1309       O  0.88641645  0.60917646  0.95011434    -0.80610
O1310       O  0.88162246  0.67342975  0.93759575    -0.90890
C1311       C  0.88647424  0.52540918  0.51382143     0.83020
O1312       O  0.96155922  0.67643273  0.97795111    -0.69090
O1313       O  0.86890238  0.59448963  0.62873107    -0.88380
C1314       C  0.98136290  0.64585445  0.98927699     0.83850
C1315       C  0.88126901  0.63783965  0.92775014     1.05420
H1316       H  0.92799096  0.60515045  0.56358393     0.37220
O1317       O  0.89495545  0.60583435  0.55646232    -1.11040
O1318       O  0.80675681  0.64684458  0.56627731    -0.67050
Ni1319     Ni  0.87401733  0.65855314  0.56287468     1.26350
O1320       O  0.95820058  0.61727089  0.50203930    -0.67920
O1321       O  0.87954954  0.65764230  0.61545741    -0.80210
C1322       C  0.88750425  0.73489116  0.54771173     0.83240
O1323       O  0.85826312  0.71363331  0.56529700    -0.67380
Ni1324     Ni  0.86533087  0.56525635  0.58364569     1.27450
Ni1325     Ni  0.89096684  0.60569821  0.50341768     1.26060
H1326       H  0.83609669  0.65733726  0.50315796     0.37780
O1327       O  0.91913566  0.71828169  0.77885924    -0.82180
O1328       O  0.90918414  0.55286954  0.74871384    -0.66860
O1329       O  0.86927720  0.65674221  0.76009359    -1.13470
C1330       C  0.87593002  0.62959303  0.88823753     1.04710
O1331       O  0.86069992  0.53019618  0.79226805    -0.80070
O1332       O  0.80245181  0.58231697  0.82389931    -0.67650
Ni1333     Ni  0.89950400  0.69652199  0.73339407     1.34870
C1334       C  0.78336471  0.61523332  0.81866767     0.83450
O1335       O  0.88642694  0.60917171  0.70011343    -0.80610
O1336       O  0.88163624  0.67342551  0.68759573    -0.90890
C1337       C  0.88646723  0.52540331  0.76382013     0.83020
O1338       O  0.96157699  0.67642165  0.72794811    -0.69090
O1339       O  0.86890494  0.59449190  0.87873041    -0.88380
C1340       C  0.98137923  0.64584388  0.73927700     0.83850
C1341       C  0.88127669  0.63783558  0.67775020     1.05420
H1342       H  0.92800232  0.60514340  0.81358390     0.37220
O1343       O  0.89496707  0.60583026  0.80646194    -1.11040
O1344       O  0.80677258  0.64684895  0.81627234    -0.67690
Ni1345     Ni  0.87403538  0.65855193  0.81287269     1.26350
O1346       O  0.95821519  0.61726058  0.75203875    -0.67920
O1347       O  0.87956181  0.65764306  0.86545580    -0.80210
C1348       C  0.88753409  0.73489055  0.79770809     0.83240
O1349       O  0.85828991  0.71363426  0.81529253    -0.67380
Ni1350     Ni  0.86533524  0.56525615  0.83364593     1.27450
Ni1351     Ni  0.89097899  0.60569305  0.75341688     1.26060
H1352       H  0.83611709  0.65733717  0.75315650     0.37780
O1353       O  0.59779365  0.72199152  0.60535383    -0.82180
O1354       O  0.60496312  0.55389332  0.63520634    -0.66860
O1355       O  0.64577694  0.65784195  0.62364519    -1.13470
C1356       C  0.63841701  0.63003090  0.49558838     1.04710
O1357       O  0.65373288  0.53122597  0.59191173    -0.80070
O1358       O  0.71184562  0.58267186  0.55946652    -0.67650
Ni1359     Ni  0.61634375  0.69804228  0.65038648     1.34870
C1360       C  0.73134523  0.61540869  0.56501404     0.83450
O1361       O  0.62805178  0.60990317  0.68364512    -0.80610
O1362       O  0.63265310  0.67404809  0.69627314    -0.90890
C1363       C  0.62794235  0.52645899  0.62034183     0.83020
O1364       O  0.55342087  0.67871727  0.65417323    -0.69090
O1365       O  0.64474442  0.59484827  0.50507995    -0.88380
C1366       C  0.53341301  0.64801225  0.64303777     0.83850
C1367       C  0.63302857  0.63845809  0.70607519     1.05420
H1368       H  0.58660600  0.60617152  0.57037328     0.37220
O1369       O  0.61965646  0.60669342  0.57750587    -1.11040
O1370       O  0.70832466  0.64712077  0.56774493    -0.67690
Ni1371     Ni  0.64117460  0.65919675  0.57093373     1.26350
O1372       O  0.55646593  0.61873532  0.63169001    -0.67920
O1373       O  0.63561604  0.65808942  0.51839767    -0.80210
C1374       C  0.62831454  0.73642805  0.58372189     0.83240
O1375       O  0.65756276  0.71391930  0.56774513    -0.67380
Ni1376     Ni  0.64866831  0.56587135  0.55032086     1.27450
Ni1377     Ni  0.62355748  0.60670680  0.63045684     1.26060
H1378       H  0.67891707  0.65826083  0.63058005     0.37780
O1379       O  0.59780852  0.72199365  0.85535767    -0.82180
O1380       O  0.60499398  0.55388405  0.88520295    -0.66860
O1381       O  0.64579240  0.65784009  0.87364565    -1.13470
C1382       C  0.63841299  0.63003474  0.74558730     1.04710
O1383       O  0.65376781  0.53122731  0.84190634    -0.80070
O1384       O  0.71186064  0.58267888  0.80944880    -0.67650
Ni1385     Ni  0.61635769  0.69803872  0.90038822     1.34870
C1386       C  0.73135903  0.61541472  0.81500424     0.83450
O1387       O  0.62807567  0.60989637  0.93364468    -0.80610
O1388       O  0.63266440  0.67404196  0.94627359    -0.90890
C1389       C  0.62797868  0.52645335  0.87033635     0.83020
O1390       O  0.55343673  0.67870970  0.90417089    -0.69090
O1391       O  0.64473771  0.59485080  0.75507634    -0.88380
C1392       C  0.53343114  0.64800135  0.89304099     0.83850
C1393       C  0.63304304  0.63845205  0.95607530     1.05420
H1394       H  0.58662209  0.60616975  0.82037551     0.37220
O1395       O  0.61967346  0.60669216  0.82750575    -1.11040
O1396       O  0.70833762  0.64712512  0.81774395    -0.67690
Ni1397     Ni  0.64118753  0.65919720  0.82093441     1.26350
O1398       O  0.55648578  0.61872426  0.88169513    -0.67920
O1399       O  0.63562513  0.65809265  0.76839821    -0.80210
C1400       C  0.62832845  0.73642923  0.83372422     0.83240
O1401       O  0.65757487  0.71391985  0.81774668    -0.67380
Ni1402     Ni  0.64868261  0.56587265  0.80031579     1.27450
Ni1403     Ni  0.62357929  0.60670178  0.88045631     1.26060
H1404       H  0.67893269  0.65826108  0.88057952     0.37780
O1405       O  0.59567179  0.29539404  0.65259362    -0.82180
O1406       O  0.60517235  0.46093275  0.62275121    -0.66860
O1407       O  0.64543003  0.35712937  0.63400901    -1.13470
C1408       C  0.63833091  0.38433947  0.76216399     1.04710
O1409       O  0.65380569  0.48358769  0.66619926    -0.80070
O1410       O  0.71187749  0.43165933  0.69833713    -0.67650
Ni1411     Ni  0.61538652  0.31729351  0.60721336     1.34870
C1412       C  0.73106059  0.39874813  0.69325136     0.83450
O1413       O  0.62805545  0.40470313  0.57407917    -0.80610
O1414       O  0.63321544  0.34048183  0.56146582    -0.90890
C1415       C  0.62796164  0.48839872  0.63781331     0.83020
O1416       O  0.55323593  0.33724026  0.60177647    -0.69090
O1417       O  0.64502957  0.41948800  0.75269679    -0.88380
C1418       C  0.53331388  0.36775720  0.61317673     0.83850
C1419       C  0.63327764  0.37607166  0.55166616     1.05420
H1420       H  0.58645667  0.40861168  0.68750218     0.37220
O1421       O  0.61950650  0.40799114  0.68040045    -1.11040
O1422       O  0.70771605  0.36713415  0.69043816    -0.67690
Ni1423     Ni  0.64051690  0.35531397  0.68678827     1.26350
O1424       O  0.55636246  0.39638954  0.62598935    -0.67920
O1425       O  0.63487685  0.35626018  0.73936127    -0.80210
C1426       C  0.62712255  0.27888601  0.67164413     0.83240
O1427       O  0.65632606  0.30022592  0.68920019    -0.67380
Ni1428     Ni  0.64885980  0.44866344  0.70763296     1.27450
Ni1429     Ni  0.62353976  0.40814096  0.62737497     1.26060
H1430       H  0.67859111  0.35661670  0.62712856     0.37780
O1431       O  0.59572546  0.29538868  0.90262732    -0.82180
O1432       O  0.60518748  0.46092912  0.87276222    -0.66860
O1433       O  0.64545581  0.35712361  0.88400603    -1.13470
C1434       C  0.63840280  0.38435526  0.51216345     1.04710
O1435       O  0.65388885  0.48356945  0.91616997    -0.80070
O1436       O  0.71194571  0.43165573  0.94834342    -0.67650
Ni1437     Ni  0.61539269  0.31728211  0.85723230     1.34870
C1438       C  0.73112862  0.39874823  0.94323626     0.83450
O1439       O  0.62802984  0.40469056  0.82408147    -0.80610
O1440       O  0.63317073  0.34046691  0.81147033    -0.90890
C1441       C  0.62800680  0.48839050  0.88780607     0.83020
O1442       O  0.55323651  0.33722277  0.85183116    -0.69090
O1443       O  0.64507511  0.41950709  0.50269368    -0.88380
C1444       C  0.53331989  0.36774484  0.86322415     0.83850
C1445       C  0.63322818  0.37605626  0.80166818     1.05420
H1446       H  0.58651921  0.40860496  0.93751937     0.37220
O1447       O  0.61956453  0.40798801  0.93040370    -1.11040
O1448       O  0.70778482  0.36713683  0.94040547    -0.67690
Ni1449     Ni  0.64058627  0.35531443  0.93678841     1.26350
O1450       O  0.55637452  0.39638297  0.87601995    -0.67920
O1451       O  0.63498351  0.35626992  0.98936369    -0.80210
C1452       C  0.62719620  0.27888478  0.92166075     0.83240
O1453       O  0.65640928  0.30022904  0.93920136    -0.67380
Ni1454     Ni  0.64892542  0.44866727  0.95762053     1.27450
Ni1455     Ni  0.62355548  0.40813435  0.87737802     1.26060
H1456       H  0.67861078  0.35661169  0.87710909     0.37780
O1457       O  0.15442735  0.52988621  0.54018739    -0.82180
O1458       O  0.15666323  0.71313061  0.56358146    -0.66860
O1459       O  0.12014974  0.60525274  0.55471542    -1.13470
C1460       C  0.13346441  0.63716510  0.92595988     1.04710
O1461       O  0.09599591  0.71797218  0.52693848    -0.80070
O1462       O  0.05344631  0.67585057  0.97645994    -0.67650
Ni1463     Ni  0.14971247  0.56469609  0.58174731     1.34870
C1464       C  0.03352062  0.64559853  0.98858912     0.83450
O1465       O  0.13554950  0.65698069  0.61367211    -0.80610
O1466       O  0.14595786  0.59380627  0.62692187    -0.90890
C1467       C  0.12727221  0.73443594  0.54628976     0.83020
O1468       O  0.21260756  0.58197018  0.57210178    -0.69090
O1469       O  0.13343509  0.67274931  0.93580304    -0.88380
C1470       C  0.23169664  0.61492714  0.56680795     0.83850
C1471       C  0.13896149  0.62890287  0.63644230     1.05420
H1472       H  0.17888799  0.65677551  0.00132153     0.37220
O1473       O  0.14576489  0.65621122  0.00830402    -1.11040
O1474       O  0.05663548  0.61690863  0.00100395    -0.67690
Ni1475     Ni  0.12375579  0.60514840  0.00169752     1.26350
O1476       O  0.20830785  0.64648212  0.56438152    -0.67920
O1477       O  0.12791221  0.60855644  0.94834105    -0.80210
C1478       C  0.12816343  0.52496121  0.51203430     0.83240
O1479       O  0.10520731  0.55234934  0.99713605    -0.67380
Ni1480     Ni  0.11567169  0.69595151  0.98157882     1.27450
Ni1481     Ni  0.14105277  0.65799053  0.56108228     1.26060
H1482       H  0.08717144  0.60448931  0.56201014     0.37780
O1483       O  0.15447214  0.52989139  0.79018455    -0.82180
O1484       O  0.15668599  0.71313113  0.81358057    -0.66860
O1485       O  0.12017455  0.60525230  0.80471559    -1.13470
C1486       C  0.13346921  0.63716425  0.67596004     1.04710
O1487       O  0.09601531  0.71797342  0.77694146    -0.80070
O1488       O  0.05346000  0.67584650  0.72646932    -0.67650
Ni1489     Ni  0.14973574  0.56469609  0.83174838     1.34870
C1490       C  0.03353731  0.64559055  0.73859287     0.83450
O1491       O  0.13557532  0.65698085  0.86367225    -0.80610
O1492       O  0.14595849  0.59380359  0.87692406    -0.90890
C1493       C  0.12729426  0.73443693  0.79629033     0.83020
O1494       O  0.21263232  0.58197672  0.82211867    -0.69090
O1495       O  0.13343892  0.67274828  0.68580349    -0.88380
C1496       C  0.23172040  0.61493228  0.81681488     0.83850
C1497       C  0.13896947  0.62890198  0.88644311     1.05420
H1498       H  0.17890455  0.65677739  0.75131879     0.37220
O1499       O  0.14578246  0.65621123  0.75830317    -1.11040
O1500       O  0.05665472  0.61690044  0.75100481    -0.67690
Ni1501     Ni  0.12377721  0.60514606  0.75169809     1.26350
O1502       O  0.20833087  0.64648549  0.81437710    -0.67920
O1503       O  0.12792796  0.60855437  0.69834156    -0.80210
C1504       C  0.12820170  0.52495886  0.76203598     0.83240
O1505       O  0.10523585  0.55234332  0.74713975    -0.67380
Ni1506     Ni  0.11568413  0.69595083  0.73158070     1.27450
Ni1507     Ni  0.14107552  0.65799087  0.81108184     1.26060
H1508       H  0.08719621  0.60448894  0.81201073     0.37780
O1509       O  0.15361644  0.48208371  0.71611769    -0.82180
O1510       O  0.15731354  0.29947635  0.69206401    -0.66860
O1511       O  0.11921832  0.40660492  0.70176218    -1.13470
C1512       C  0.13277525  0.37484897  0.83028380     1.04710
O1513       O  0.09718178  0.29200527  0.72930879    -0.80070
O1514       O  0.05316974  0.33473046  0.77893491    -0.67650
Ni1515     Ni  0.14799888  0.44752373  0.67449059     1.34870
C1516       C  0.03316636  0.36556310  0.76834168     0.83450
O1517       O  0.13534857  0.35521114  0.64257889    -0.80610
O1518       O  0.14368107  0.41855887  0.62928993    -0.90890
C1519       C  0.12811330  0.27712926  0.70838104     0.83020
O1520       O  0.21131716  0.43093423  0.68297996    -0.69090
O1521       O  0.13251346  0.33924912  0.82044343    -0.88380
C1522       C  0.23092203  0.39829778  0.68848290     0.83850
C1523       C  0.13788443  0.38329820  0.61979364     1.05420
H1524       H  0.17861864  0.35527906  0.75478170     0.37220
O1525       O  0.14546505  0.35564595  0.74787092    -1.11040
O1526       O  0.05617667  0.39467773  0.75643843    -0.67690
Ni1527     Ni  0.12332739  0.40668610  0.75472775     1.26350
O1528       O  0.20795886  0.36654825  0.69176733    -0.67920
O1529       O  0.12797073  0.40343207  0.80788904    -0.80210
C1530       C  0.12793510  0.48689238  0.74458553     0.83240
O1531       O  0.10489818  0.45948299  0.75951033    -0.67380
Ni1532     Ni  0.11592268  0.31542765  0.77452935     1.27450
Ni1533     Ni  0.14084233  0.35418342  0.69513184     1.26060
H1534       H  0.08612412  0.40695879  0.69475462     0.37780
O1535       O  0.15354250  0.48209866  0.96609627    -0.82180
O1536       O  0.15724618  0.29947439  0.94206137    -0.66860
O1537       O  0.11916822  0.40660679  0.95176614    -1.13470
C1538       C  0.13281974  0.37485788  0.58028589     1.04710
O1539       O  0.09714104  0.29200872  0.47933425    -0.80070
O1540       O  0.05317134  0.33473975  0.52898222    -0.67650
Ni1541     Ni  0.14794082  0.44752143  0.92448219     1.34870
C1542       C  0.03316346  0.36556961  0.51838644     0.83450
O1543       O  0.13525704  0.35520480  0.89258005    -0.80610
O1544       O  0.14364020  0.41854601  0.87928789    -0.90890
C1545       C  0.12805564  0.27712997  0.95839279     0.83020
O1546       O  0.21125827  0.43093908  0.93298590    -0.69090
O1547       O  0.13255436  0.33925757  0.57044745    -0.88380
C1548       C  0.23086406  0.39829907  0.93846878     0.83850
C1549       C  0.13782142  0.38328807  0.86979296     1.05420
H1550       H  0.17860420  0.35528203  0.50476394     0.37220
O1551       O  0.14544535  0.35564909  0.49786775    -1.11040
O1552       O  0.05616820  0.39467960  0.50646789    -0.67690
Ni1553     Ni  0.12331483  0.40668917  0.50473145     1.26350
O1554       O  0.20790078  0.36654691  0.94173761    -0.67920
O1555       O  0.12799502  0.40343876  0.55789148    -0.80210
C1556       C  0.12789244  0.48689720  0.49458230     0.83240
O1557       O  0.10488348  0.45948249  0.50952262    -0.67380
Ni1558     Ni  0.11592119  0.31543403  0.52454396     1.27450
Ni1559     Ni  0.14078418  0.35418300  0.94513088     1.26060
H1560       H  0.08606986  0.40696330  0.94477118     0.37780
O1561       O  0.36022985  0.48365867  0.66415021    -0.82180
O1562       O  0.35781625  0.30048193  0.68751718    -0.66860
O1563       O  0.39456597  0.40828834  0.67864137    -1.13470
C1564       C  0.38137243  0.37642695  0.54987912     1.04710
O1565       O  0.41841064  0.29541582  0.65078591    -0.80070
O1566       O  0.46127298  0.33757375  0.60051281    -0.67650
Ni1567     Ni  0.36518942  0.44891319  0.70574700     1.34870
C1568       C  0.48115604  0.36791078  0.61252198     0.83450
O1569       O  0.37924948  0.35661045  0.73758233    -0.80610
O1570       O  0.36921761  0.41984123  0.75090340    -0.90890
C1571       C  0.38706764  0.27907149  0.67017319     0.83020
O1572       O  0.30216037  0.43163744  0.69656045    -0.69090
O1573       O  0.38145079  0.34083891  0.55966939    -0.88380
C1574       C  0.28299710  0.39866406  0.69145456     0.83850
C1575       C  0.37601917  0.38471037  0.76037905     1.05420
H1576       H  0.33566209  0.35677561  0.62529097     0.37220
O1577       O  0.36882864  0.35733462  0.63223021    -1.11040
O1578       O  0.45800762  0.39664356  0.62484591    -0.67690
Ni1579     Ni  0.39090161  0.40840103  0.62564167     1.26350
O1580       O  0.30637772  0.36714009  0.68861341    -0.67920
O1581       O  0.38675152  0.40502723  0.57230739    -0.80210
C1582       C  0.38650043  0.48858226  0.63597727     0.83240
O1583       O  0.40950183  0.46118402  0.62110137    -0.67380
Ni1584     Ni  0.39895729  0.31756757  0.60544957     1.27450
Ni1585     Ni  0.37360053  0.35557937  0.68501227     1.26060
H1586       H  0.42755665  0.40900813  0.68588545     0.37780
O1587       O  0.36017952  0.48364414  0.91412736    -0.82180
O1588       O  0.35774881  0.30048119  0.93751286    -0.66860
O1589       O  0.39452185  0.40828264  0.92864704    -1.13470
C1590       C  0.38142858  0.37641885  0.79988167     1.04710
O1591       O  0.41837177  0.29540848  0.90081142    -0.80070
O1592       O  0.46128168  0.33756007  0.85055993    -0.67650
Ni1593     Ni  0.36513572  0.44891321  0.95573687     1.34870
C1594       C  0.48116138  0.36789883  0.86256847     0.83450
O1595       O  0.37915784  0.35661315  0.98758341    -0.80610
O1596       O  0.36916493  0.41985071  0.00089962    -0.90890
C1597       C  0.38701204  0.27906753  0.92018484     0.83020
O1598       O  0.30210469  0.43163515  0.94655592    -0.69090
O1599       O  0.38149834  0.34083091  0.80967288    -0.88380
C1600       C  0.28294015  0.39866427  0.94143767     0.83850
C1601       C  0.37594770  0.38471748  0.51037759     1.05420
H1602       H  0.33565237  0.35677424  0.87527159     0.37220
O1603       O  0.36881370  0.35733037  0.88222671    -1.11040
O1604       O  0.45800883  0.39663472  0.87488120    -0.67690
Ni1605     Ni  0.39090140  0.40839496  0.87564720     1.26350
O1606       O  0.30632019  0.36714160  0.93858452    -0.67920
O1607       O  0.38679270  0.40501984  0.82231142    -0.80210
C1608       C  0.38648864  0.48857397  0.88597651     0.83240
O1609       O  0.40951157  0.46117748  0.87111751    -0.67380
Ni1610     Ni  0.39896026  0.31755956  0.85546397     1.27450
Ni1611     Ni  0.37354381  0.35557709  0.93501122     1.26060
H1612       H  0.42750716  0.40899842  0.93590624     0.37780
O1613       O  0.36151870  0.53117792  0.58972086    -0.82180
O1614       O  0.35715523  0.71406023  0.56587832    -0.66860
O1615       O  0.39538465  0.60694645  0.57560399    -1.13470
C1616       C  0.38131072  0.63879837  0.70413641     1.04710
O1617       O  0.41703597  0.72192414  0.60330163    -0.80070
O1618       O  0.46107777  0.67905385  0.65277702    -0.67650
Ni1619     Ni  0.36638068  0.56606729  0.54830413     1.34870
C1620       C  0.48113424  0.64816561  0.64232653     0.83450
O1621       O  0.37937489  0.65839537  0.51646769    -0.80610
O1622       O  0.36994524  0.59517921  0.50314540    -0.90890
C1623       C  0.38620479  0.73656632  0.58215042     0.83020
O1624       O  0.30321240  0.58255114  0.55768809    -0.69090
O1625       O  0.38168768  0.67439364  0.69432136    -0.88380
C1626       C  0.28368406  0.61524438  0.56311765     0.83850
C1627       C  0.37625043  0.63036914  0.49365363     1.05420
H1628       H  0.33581438  0.65835521  0.62856523     0.37220
O1629       O  0.36896439  0.65799419  0.62170006    -1.11040
O1630       O  0.45818394  0.61897742  0.63047564    -0.67690
Ni1631     Ni  0.39103857  0.60694065  0.62858566     1.26350
O1632       O  0.30666141  0.64704700  0.56570573    -0.67920
O1633       O  0.38610396  0.61021115  0.68172364    -0.80210
C1634       C  0.38674008  0.52661861  0.61845507     0.83240
O1635       O  0.40944605  0.55415828  0.63348228    -0.67380
Ni1636     Ni  0.39828438  0.69828727  0.64843810     1.27450
Ni1637     Ni  0.37375280  0.65940314  0.56899238     1.26060
H1638       H  0.42849576  0.60653290  0.56862799     0.37780
O1639       O  0.36153622  0.53117134  0.83971227    -0.82180
O1640       O  0.35719046  0.71406152  0.81588401    -0.66860
O1641       O  0.39540569  0.60694231  0.82560431    -1.13470
C1642       C  0.38131265  0.63879036  0.95413671     1.04710
O1643       O  0.41706847  0.72192122  0.85331109    -0.80070
O1644       O  0.46109672  0.67904074  0.90278605    -0.67650
Ni1645     Ni  0.36639604  0.56606803  0.79830086     1.34870
C1646       C  0.48115213  0.64815289  0.89233294     0.83450
O1647       O  0.37940242  0.65839907  0.76646981    -0.80610
O1648       O  0.36995246  0.59518601  0.75314514    -0.90890
C1649       C  0.38624054  0.73656571  0.83215846     0.83020
O1650       O  0.30323256  0.58255397  0.80769524    -0.69090
O1651       O  0.38169750  0.67438565  0.94432255    -0.88380
C1652       C  0.28370731  0.61524859  0.81312282     0.83850
C1653       C  0.37626256  0.63037556  0.74365429     1.05420
H1654       H  0.33583726  0.65835354  0.87856432     0.37220
O1655       O  0.36898802  0.65799031  0.87170118    -1.11040
O1656       O  0.45820076  0.61896552  0.88048098    -0.67690
Ni1657     Ni  0.39105351  0.60693402  0.87858649     1.26350
O1658       O  0.30668700  0.64705085  0.81570553    -0.67920
O1659       O  0.38611074  0.61020308  0.93172448    -0.80210
C1660       C  0.38674367  0.52661081  0.86845351     0.83240
O1661       O  0.40945085  0.55414819  0.88348400    -0.67380
Ni1662     Ni  0.39830686  0.69828061  0.89844342     1.27450
Ni1663     Ni  0.37378030  0.65940232  0.81899456     1.26060
H1664       H  0.42851726  0.60652589  0.81863006     0.37780
loop_ 
_geom_bond_atom_site_label_1 
_geom_bond_atom_site_label_2 
_geom_bond_distance 
_geom_bond_site_symmetry_2 
_ccdc_geom_bond_type 
O1           Ni7   1.932       .  S
O1           C22   1.272       .  A
O2          Ni25   1.954       .  S
O2           C11   1.273       .  A
O3           Ni7   1.903       .  S
O3          Ni25   1.926       .  S
O3          Ni19   1.926       .  S
O3           H26   0.966       .  S
C4           O21   1.287       .  A
C4           O13   1.278       .  A
C4           C41   1.468       .  S
O5          Ni24   1.893       .  S
O5           C11   1.260       .  A
O6          Ni24   1.892       .  S
O6            C8   1.263       .  A
Ni7          O12   1.900       .  S
Ni7         O842   1.923   1_554  S
C8           O18   1.268       .  A
C8          C274   1.469       .  S
O9          Ni25   1.913       .  S
O9          C847   1.276   1_554  A
O10        Ni839   1.923       .  S
O10          C15   1.274       .  A
C11         C542   1.472       .  S
O12          C14   1.271       .  A
O13         Ni24   1.909       .  S
C14          O20   1.276       .  A
C14          C66   1.470       .  S
C15         O841   1.276       .  A
C15          C30   1.468       .  S
H16          O17   0.967       .  S
O17         Ni25   1.919       .  S
O17         Ni19   1.880       .  S
O17         Ni24   1.882       .  S
O18         Ni19   1.934       .  S
Ni19         O23   1.900       .  S
Ni19         O21   1.941       .  S
O20         Ni25   1.939       .  S
C22          O23   1.266       .  A
C22         C178   1.458   1_565  S
O27         Ni33   1.932       .  S
O27          C48   1.272       .  A
O28         Ni51   1.954       .  S
O28          C37   1.273       .  A
O29         Ni33   1.903       .  S
O29         Ni51   1.926       .  S
O29         Ni45   1.926       .  S
O29          H52   0.966       .  S
C30          O47   1.287       .  A
C30          O39   1.278       .  A
O31         Ni50   1.893       .  S
O31          C37   1.260       .  A
O32         Ni50   1.892       .  S
O32          C34   1.263       .  A
Ni33         O36   1.923       .  S
Ni33         O38   1.900       .  S
C34          O44   1.268       .  A
C34         C300   1.469       .  S
O35         Ni51   1.913       .  S
O35          C41   1.276       .  A
O36          C41   1.274       .  A
C37         C568   1.472       .  S
O38          C40   1.271       .  A
O39         Ni50   1.909       .  S
C40          O46   1.276       .  A
C40          C92   1.470       .  S
H42          O43   0.967       .  S
O43         Ni51   1.919       .  S
O43         Ni45   1.880       .  S
O43         Ni50   1.882       .  S
O44         Ni45   1.934       .  S
Ni45         O49   1.900       .  S
Ni45         O47   1.941       .  S
O46         Ni51   1.939       .  S
C48          O49   1.266       .  A
C48         C204   1.458   1_565  S
O53         Ni59   1.929       .  S
O53         C906   1.271       .  A
O54         Ni77   1.945       .  S
O54          C63   1.272       .  A
O55         Ni59   1.903       .  S
O55         Ni77   1.923       .  S
O55        Ni903   1.923   1_554  S
O55          H78   0.966       .  S
C56          O73   1.284       .  A
C56          O65   1.278       .  A
C56          C93   1.469       .  S
O57         Ni76   1.904       .  S
O57         C895   1.265       .  A
O58         Ni76   1.896       .  S
O58          C60   1.264       .  A
Ni59         O62   1.924       .  S
Ni59         O64   1.899       .  S
C60          O70   1.270       .  A
C60         C222   1.472   1_655  S
O61         Ni77   1.912       .  S
O61          C67   1.275       .  A
O62          C67   1.274       .  A
C63         O889   1.265       .  A
C63         C490   1.471       .  S
O64          C66   1.270       .  A
O65         Ni76   1.914       .  S
C66          O72   1.276       .  A
C67          C82   1.469       .  S
H68          O69   0.966       .  S
O69         Ni71   1.886       .  S
O69         Ni76   1.884       .  S
O69        Ni909   1.916       .  S
O70         Ni71   1.936       .  S
Ni71         O75   1.902       .  S
Ni71         O73   1.936       .  S
Ni71        O887   1.923       .  S
O72         Ni77   1.940       .  S
C74          O75   1.267       .  A
C74         O885   1.271       .  A
C74         C152   1.457   1_565  S
Ni77        O901   1.916       .  S
O79         Ni85   1.929       .  S
O79         C100   1.271       .  A
O80        Ni103   1.945       .  S
O80          C89   1.272       .  A
O81         Ni85   1.903       .  S
O81        Ni103   1.923       .  S
O81         Ni97   1.923       .  S
O81         H104   0.966       .  S
C82          O99   1.284       .  A
C82          O91   1.278       .  A
O83        Ni102   1.904       .  S
O83          C89   1.265       .  A
O84        Ni102   1.896       .  S
O84          C86   1.264       .  A
Ni85         O88   1.924       .  S
Ni85         O90   1.899       .  S
C86          O96   1.270       .  A
C86         C248   1.472   1_655  S
O87        Ni103   1.912       .  S
O87          C93   1.275       .  A
O88          C93   1.274       .  A
C89         C516   1.471       .  S
O90          C92   1.270       .  A
O91        Ni102   1.914       .  S
C92          O98   1.276       .  A
H94          O95   0.966       .  S
O95        Ni103   1.916       .  S
O95         Ni97   1.886       .  S
O95        Ni102   1.884       .  S
O96         Ni97   1.936       .  S
Ni97        O101   1.902       .  S
Ni97         O99   1.936       .  S
O98        Ni103   1.940       .  S
C100        O101   1.267       .  A
C100        C126   1.457   1_565  S
O105       Ni111   1.930       .  S
O105        C126   1.272       .  A
O106       Ni129   1.954       .  S
O106        C115   1.273       .  A
O107       Ni111   1.902       .  S
O107       Ni129   1.925       .  S
O107       Ni123   1.925       .  S
O107        H130   0.966       .  S
C108        O125   1.287       .  A
C108        O117   1.278       .  A
C108        C145   1.468       .  S
O109       Ni128   1.893       .  S
O109        C115   1.260       .  A
O110       Ni128   1.892       .  S
O110        C112   1.263       .  A
Ni111       O114   1.921       .  S
Ni111       O116   1.900       .  S
C112        O122   1.268       .  A
C112        C378   1.469   1_655  S
O113       Ni129   1.914       .  S
O113        C119   1.277       .  A
O114        C119   1.274       .  A
C115        C438   1.472       .  S
O116        C118   1.271       .  A
O117       Ni128   1.908       .  S
C118        O124   1.276       .  A
C118        C170   1.470       .  S
C119        C134   1.468       .  S
H120        O121   0.967       .  S
O121       Ni129   1.920       .  S
O121       Ni123   1.881       .  S
O121       Ni128   1.882       .  S
O122       Ni123   1.934       .  S
Ni123       O127   1.901       .  S
Ni123       O125   1.940       .  S
O124       Ni129   1.939       .  S
C126        O127   1.267       .  A
O131       Ni137   1.930       .  S
O131        C152   1.271       .  A
O132       Ni155   1.954       .  S
O132        C141   1.273       .  A
O133       Ni137   1.902       .  S
O133       Ni155   1.925       .  S
O133       Ni981   1.925       .  S
O133        H156   0.966       .  S
C134        O151   1.287       .  A
C134        O143   1.278       .  A
O135       Ni986   1.893       .  S
O135        C141   1.260       .  A
O136       Ni154   1.892       .  S
O136        C138   1.263       .  A
Ni137       O140   1.921       .  S
Ni137       O142   1.900       .  S
C138        O148   1.268       .  A
C138        C404   1.469   1_655  S
O139       Ni155   1.914       .  S
O139        C145   1.277       .  A
O140        C145   1.274       .  A
C141        C464   1.472       .  S
O142        C144   1.271       .  A
O143       Ni154   1.908       .  S
C144        O150   1.276       .  A
C144        C196   1.470       .  S
H146        O147   0.967   1_554  S
O147       Ni149   1.881   1_556  S
O147       Ni154   1.882   1_556  S
O147       Ni987   1.920       .  S
O148       Ni149   1.934       .  S
Ni149       O153   1.901       .  S
Ni149       O151   1.940       .  S
Ni149       O965   1.925   1_554  S
O150       Ni155   1.939       .  S
C152        O985   1.267       .  A
O153        C984   1.267   1_554  A
Ni154       O967   1.893   1_554  S
Ni155       O979   1.920       .  S
O157       Ni163   1.931       .  S
O157        C178   1.271       .  A
O158       Ni181   1.946       .  S
O158        C167   1.272       .  A
O159       Ni163   1.903       .  S
O159       Ni181   1.924       .  S
O159       Ni175   1.923       .  S
O159        H182   0.966       .  S
C160        O177   1.284       .  A
C160        O169   1.278       .  A
C160       C1029   1.469       .  S
O161       Ni180   1.903       .  S
O161        C167   1.265       .  A
O162       Ni180   1.896       .  S
O162        C164   1.264       .  A
Ni163       O166   1.924       .  S
Ni163       O168   1.899       .  S
C164        O174   1.269       .  A
C164        C326   1.472       .  S
O165       Ni181   1.911       .  S
O165        C171   1.275       .  A
O166        C171   1.274       .  A
C167        C594   1.472       .  S
O168        C170   1.270       .  A
O169       Ni180   1.914       .  S
C170        O176   1.276       .  A
C171        C186   1.469       .  S
H172        O173   0.966       .  S
O173       Ni181   1.917       .  S
O173       Ni175   1.886       .  S
O173       Ni180   1.884       .  S
O174       Ni175   1.935       .  S
Ni175       O179   1.902       .  S
Ni175       O177   1.935       .  S
O176       Ni181   1.940       .  S
C178        O179   1.267       .  A
O183       Ni189   1.931       .  S
O183        C204   1.271       .  A
O184       Ni207   1.946       .  S
O184        C193   1.272       .  A
O185       Ni189   1.903       .  S
O185       Ni207   1.924       .  S
O185       Ni201   1.923       .  S
O185        H208   0.966       .  S
C186        O203   1.284       .  A
C186        O195   1.278       .  A
O187       Ni206   1.903       .  S
O187        C193   1.265       .  A
O188       Ni206   1.896       .  S
O188        C190   1.264       .  A
Ni189       O192   1.924       .  S
Ni189       O194   1.899       .  S
C190        O200   1.269       .  A
C190        C352   1.472       .  S
O191       Ni207   1.911       .  S
O191        C197   1.275       .  A
O192        C197   1.274       .  A
C193        C620   1.472       .  S
O194        C196   1.270       .  A
O195       Ni206   1.914       .  S
C196        O202   1.276       .  A
C197        C992   1.469       .  S
H198        O199   0.966       .  S
O199       Ni207   1.917       .  S
O199       Ni201   1.886       .  S
O199       Ni206   1.884       .  S
O200       Ni201   1.935       .  S
Ni201       O205   1.902       .  S
Ni201       O203   1.935       .  S
O202       Ni207   1.940       .  S
C204        O205   1.267       .  A
O209      Ni1047   1.902   1_554  S
O209        C230   1.264       .  A
O210       Ni233   1.902       .  S
O210       C1051   1.267       .  A
O211       Ni215   1.883       .  S
O211       Ni233   1.885       .  S
O211      Ni1059   1.916       .  S
O211        H234   0.966       .  S
C212        O229   1.275       .  A
C212        O221   1.274       .  A
C212        C249   1.469       .  S
O213       Ni232   1.929       .  S
O213        C219   1.271       .  A
O214       Ni232   1.899       .  S
O214        C216   1.270       .  A
Ni215       O218   1.914       .  S
Ni215       O220   1.896       .  S
Ni215      O1041   1.902       .  S
C216        O226   1.276       .  A
C216        C268   1.470       .  S
O217       Ni233   1.935       .  S
O217        C223   1.285       .  A
O218        C223   1.278       .  A
C219       O1042   1.267   1_554  A
C219       C1233   1.457   1_564  S
O220        C222   1.264       .  A
O221       Ni232   1.923       .  S
C222        O228   1.270       .  A
C223        C238   1.469       .  S
H224        O225   0.966       .  S
O225       Ni227   1.924       .  S
O225       Ni232   1.904       .  S
O225      Ni1065   1.924   1_554  S
O226       Ni227   1.939       .  S
Ni227       O231   1.946       .  S
Ni227       O229   1.912       .  S
Ni227      O1043   1.916       .  S
O228       Ni233   1.936       .  S
C230        O231   1.272       .  A
C230        C635   1.471       .  S
Ni233      O1057   1.924       .  S
O235       Ni241   1.902       .  S
O235        C256   1.264       .  A
O236       Ni259   1.902       .  S
O236        C245   1.267       .  A
O237       Ni241   1.883       .  S
O237       Ni259   1.885       .  S
O237       Ni253   1.916       .  S
O237        H260   0.966       .  S
C238        O255   1.275       .  A
C238        O247   1.274       .  A
O239       Ni258   1.929       .  S
O239        C245   1.271       .  A
O240       Ni258   1.899       .  S
O240        C242   1.270       .  A
Ni241       O244   1.914       .  S
Ni241       O246   1.896       .  S
C242        O252   1.276       .  A
C242        C294   1.470       .  S
O243       Ni259   1.935       .  S
O243        C249   1.285       .  A
O244        C249   1.278       .  A
C245        C375   1.457   1_565  S
O246        C248   1.264       .  A
O247       Ni258   1.923       .  S
C248        O254   1.270       .  A
H250        O251   0.966       .  S
O251       Ni259   1.924       .  S
O251       Ni253   1.924       .  S
O251       Ni258   1.904       .  S
O252       Ni253   1.939       .  S
Ni253       O257   1.946       .  S
Ni253       O255   1.912       .  S
O254       Ni259   1.936       .  S
C256        O257   1.272       .  A
C256        C661   1.471       .  S
O261       Ni267   1.894       .  S
O261        C282   1.260       .  A
O262       Ni285   1.900       .  S
O262        C271   1.266       .  A
O263       Ni267   1.881       .  S
O263       Ni285   1.880       .  S
O263       Ni279   1.919       .  S
O263        H286   0.966       .  S
C264        O281   1.276   1_556  A
C264        O273   1.274       .  A
C264       C1133   1.469       .  S
O265       Ni284   1.931       .  S
O265        C271   1.272       .  A
O266       Ni284   1.900       .  S
O266        C268   1.271       .  A
Ni267       O270   1.909       .  S
Ni267       O272   1.892       .  S
C268        O278   1.276       .  A
O269       Ni285   1.941       .  S
O269        C275   1.287       .  A
O270        C275   1.278       .  A
C271        C323   1.457   1_565  S
O272        C274   1.263       .  A
O273       Ni284   1.924   1_556  S
C274        O280   1.268       .  A
C275        C290   1.469       .  S
H276        O277   0.966       .  S
O277       Ni285   1.926       .  S
O277       Ni279   1.925       .  S
O277       Ni284   1.902       .  S
O278       Ni279   1.939       .  S
Ni279       O283   1.953       .  S
Ni279       O281   1.912       .  S
O280       Ni285   1.934       .  S
C282        O283   1.273       .  A
C282        C791   1.471       .  S
O287       Ni293   1.894       .  S
O287        C308   1.260       .  A
O288       Ni311   1.900       .  S
O288        C297   1.266       .  A
O289       Ni293   1.881       .  S
O289       Ni311   1.880       .  S
O289       Ni305   1.919       .  S
O289        H312   0.966       .  S
C290        O307   1.276       .  A
C290        O299   1.274       .  A
O291       Ni310   1.931       .  S
O291        C297   1.272       .  A
O292       Ni310   1.900       .  S
O292        C294   1.271       .  A
Ni293       O296   1.909       .  S
Ni293       O298   1.892       .  S
C294        O304   1.276       .  A
O295       Ni311   1.941       .  S
O295        C301   1.287       .  A
O296        C301   1.278       .  A
C297        C349   1.457   1_565  S
O298        C300   1.263       .  A
O299       Ni310   1.924       .  S
C300        O306   1.268       .  A
C301       C1096   1.469       .  S
H302        O303   0.966       .  S
O303       Ni311   1.926       .  S
O303       Ni305   1.925       .  S
O303       Ni310   1.902       .  S
O304       Ni305   1.939       .  S
Ni305       O309   1.953       .  S
Ni305       O307   1.912       .  S
O306       Ni311   1.934       .  S
C308        O309   1.273       .  A
C308        C817   1.471       .  S
O313       Ni319   1.902       .  S
O313        C334   1.264       .  A
O314       Ni337   1.902       .  S
O314        C323   1.267       .  A
O315       Ni319   1.884       .  S
O315       Ni337   1.885       .  S
O315       Ni331   1.917       .  S
O315        H338   0.967       .  S
C316        O333   1.275       .  A
C316        O325   1.274       .  A
C316        C353   1.469       .  S
O317       Ni336   1.930       .  S
O317        C323   1.271       .  A
O318       Ni336   1.899       .  S
O318        C320   1.270       .  A
Ni319       O322   1.914       .  S
Ni319       O324   1.896       .  S
C320        O330   1.276       .  A
C320        C372   1.470       .  S
O321       Ni337   1.935       .  S
O321        C327   1.284       .  A
O322        C327   1.278       .  A
O324        C326   1.264       .  A
O325       Ni336   1.923       .  S
C326        O332   1.269       .  A
C327       C1174   1.469       .  S
H328        O329   0.966       .  S
O329       Ni337   1.923       .  S
O329       Ni331   1.923       .  S
O329       Ni336   1.903       .  S
O330       Ni331   1.940       .  S
Ni331       O335   1.947       .  S
Ni331       O333   1.912       .  S
O332       Ni337   1.935       .  S
C334        O335   1.272       .  A
C334        C739   1.472       .  S
O339       Ni345   1.902       .  S
O339        C360   1.264       .  A
O340       Ni363   1.902       .  S
O340        C349   1.267       .  A
O341       Ni345   1.884       .  S
O341       Ni363   1.885       .  S
O341       Ni357   1.917       .  S
O341        H364   0.967       .  S
C342        O359   1.275       .  A
C342        O351   1.274       .  A
C342       C1159   1.469       .  S
O343       Ni362   1.930       .  S
O343        C349   1.271       .  A
O344       Ni362   1.899       .  S
O344        C346   1.270       .  A
Ni345       O348   1.914       .  S
Ni345       O350   1.896       .  S
C346        O356   1.276       .  A
C346        C398   1.470       .  S
O347       Ni363   1.935       .  S
O347        C353   1.284       .  A
O348        C353   1.278       .  A
O350        C352   1.264       .  A
O351       Ni362   1.923       .  S
C352        O358   1.269       .  A
H354        O355   0.966       .  S
O355       Ni363   1.923       .  S
O355       Ni357   1.923       .  S
O355       Ni362   1.903       .  S
O356       Ni357   1.940       .  S
Ni357       O361   1.947       .  S
Ni357       O359   1.912       .  S
O358       Ni363   1.935       .  S
C360        O361   1.272       .  A
C360        C765   1.472       .  S
O365       Ni371   1.894       .  S
O365        C386   1.261       .  A
O366       Ni389   1.901       .  S
O366        C375   1.267       .  A
O367       Ni371   1.882       .  S
O367       Ni389   1.882       .  S
O367       Ni383   1.919       .  S
O367        H390   0.967       .  S
C368        O385   1.277       .  A
C368        O377   1.274       .  A
C368        C405   1.468       .  S
O369       Ni388   1.931       .  S
O369        C375   1.272       .  A
O370       Ni388   1.900       .  S
O370        C372   1.271       .  A
Ni371       O374   1.909       .  S
Ni371       O376   1.892       .  S
C372        O382   1.276       .  A
O373       Ni389   1.940       .  S
O373        C379   1.287       .  A
O374        C379   1.278       .  A
O376        C378   1.263       .  A
O377       Ni388   1.923       .  S
C378        O384   1.268       .  A
C379        C394   1.468       .  S
H380        O381   0.966       .  S
O381       Ni389   1.924       .  S
O381       Ni383   1.924       .  S
O381       Ni388   1.901       .  S
O382       Ni383   1.939       .  S
Ni383       O387   1.952       .  S
Ni383       O385   1.913       .  S
O384       Ni389   1.934       .  S
C386        O387   1.273       .  A
C386        C687   1.471       .  S
O391      Ni1229   1.895       .  S
O391        C412   1.261       .  A
O392       Ni415   1.901       .  S
O392       C1233   1.267   1_554  A
O393       Ni397   1.882   1_556  S
O393       Ni415   1.881   1_556  S
O393      Ni1241   1.919       .  S
O393        H416   0.967   1_556  S
C394        O411   1.277       .  A
C394        O403   1.274       .  A
O395       Ni414   1.931       .  S
O395        C401   1.272       .  A
O396       Ni414   1.900       .  S
O396        C398   1.271       .  A
Ni397       O400   1.909       .  S
Ni397       O402   1.892       .  S
Ni397      O1223   1.895   1_554  S
C398        O408   1.276       .  A
O399       Ni415   1.941       .  S
O399        C405   1.287       .  A
O400        C405   1.278       .  A
C401       O1224   1.267       .  A
C401       C1051   1.457   1_545  S
O402        C404   1.263       .  A
O403       Ni414   1.923       .  S
C404        O410   1.268       .  A
H406        O407   0.966       .  S
O407       Ni409   1.924       .  S
O407       Ni414   1.901       .  S
O407      Ni1247   1.924       .  S
O408       Ni409   1.939       .  S
Ni409       O413   1.952       .  S
Ni409       O411   1.913       .  S
Ni409      O1225   1.919       .  S
O410       Ni415   1.934       .  S
C412        O413   1.273       .  A
C412        C713   1.471       .  S
Ni415      O1239   1.924   1_554  S
O417       Ni423   1.903       .  S
O417        C438   1.264       .  A
O418       Ni441   1.902       .  S
O418        C427   1.267       .  A
O419       Ni423   1.884       .  S
O419       Ni441   1.886       .  S
O419       Ni435   1.917       .  S
O419        H442   0.966       .  S
C420        O437   1.275       .  A
C420        O429   1.274       .  A
C420        C457   1.469       .  S
O421       Ni440   1.930       .  S
O421        C427   1.271       .  A
O422       Ni440   1.899       .  S
O422        C424   1.270       .  A
Ni423       O426   1.914       .  S
Ni423       O428   1.896       .  S
C424        O434   1.276       .  A
C424        C580   1.470       .  S
O425       Ni441   1.935       .  S
O425        C431   1.284       .  A
O426        C431   1.278       .  A
C427        C505   1.458       .  S
O428        C430   1.264       .  A
O429       Ni440   1.924       .  S
C430        O436   1.269       .  A
C430        C684   1.472   1_655  S
C431        C446   1.469       .  S
H432        O433   0.966       .  S
O433       Ni441   1.923       .  S
O433       Ni435   1.923       .  S
O433       Ni440   1.902       .  S
O434       Ni435   1.939       .  S
Ni435       O439   1.946       .  S
Ni435       O437   1.912       .  S
O436       Ni441   1.935       .  S
C438        O439   1.272       .  A
O443       Ni449   1.903   1_556  S
O443       C1296   1.264       .  A
O444       Ni467   1.902       .  S
O444        C453   1.267   1_554  A
O445       Ni449   1.884   1_556  S
O445       Ni467   1.886   1_556  S
O445      Ni1293   1.917       .  S
O445        H468   0.966   1_556  S
C446        O463   1.275       .  A
C446        O455   1.274       .  A
O447       Ni466   1.930       .  S
O447       C1285   1.271       .  A
O448       Ni466   1.899       .  S
O448        C450   1.270       .  A
Ni449       O452   1.914       .  S
Ni449       O454   1.896       .  S
C450        O460   1.276       .  A
C450        C606   1.470       .  S
O451       Ni467   1.935       .  S
O451        C457   1.284       .  A
O452        C457   1.278       .  A
C453       O1279   1.271       .  A
C453        C479   1.457   1_556  S
O454        C456   1.264       .  A
O455       Ni466   1.923       .  S
C456        O462   1.269       .  A
C456        C710   1.472   1_655  S
H458        O459   0.966       .  S
O459       Ni461   1.923       .  S
O459       Ni466   1.902       .  S
O459      Ni1299   1.923       .  S
O460       Ni461   1.939       .  S
Ni461       O465   1.946       .  S
Ni461       O463   1.912       .  S
Ni461      O1277   1.917       .  S
O462       Ni467   1.935       .  S
C464        O465   1.272       .  A
C464       O1275   1.264       .  A
Ni467      O1291   1.923   1_554  S
O469      Ni1307   1.893   1_554  S
O469        C490   1.260       .  A
O470       Ni493   1.901   1_556  S
O470        C479   1.267   1_556  A
O471       Ni493   1.880       .  S
O471       Ni487   1.919       .  S
O471      Ni1307   1.882   1_554  S
O471        H494   0.967       .  S
C472        O489   1.276       .  A
C472        O481   1.273       .  A
C472        C509   1.468       .  S
O473       Ni492   1.930       .  S
O473        C479   1.272       .  A
O474       Ni492   1.900       .  S
O474        C476   1.271       .  A
Ni475       O478   1.908       .  S
Ni475       O480   1.891       .  S
Ni475      O1301   1.893       .  S
Ni475      O1303   1.882       .  S
C476        O486   1.276       .  A
C476        C528   1.470       .  S
O477      Ni1325   1.941       .  S
O477        C483   1.287       .  A
O478        C483   1.278       .  A
O480        C482   1.263       .  A
O481       Ni492   1.922       .  S
C482       O1320   1.268       .  A
C482        C632   1.469   1_655  S
C483        C498   1.468       .  S
H484        O485   0.966       .  S
O485       Ni493   1.926       .  S
O485       Ni487   1.926       .  S
O485       Ni492   1.903       .  S
O486       Ni487   1.940       .  S
Ni487       O491   1.953       .  S
Ni487       O489   1.913       .  S
O488       Ni493   1.935       .  S
O488       C1314   1.268   1_554  A
C490        O491   1.273       .  A
Ni493      O1309   1.941   1_554  S
O495       Ni501   1.893       .  S
O495        C516   1.260       .  A
O496       Ni519   1.901       .  S
O496        C505   1.267       .  A
O497       Ni501   1.881       .  S
O497       Ni519   1.880       .  S
O497       Ni513   1.919       .  S
O497        H520   0.967       .  S
C498        O515   1.276       .  A
C498        O507   1.273       .  A
O499       Ni518   1.930       .  S
O499        C505   1.272       .  A
O500       Ni518   1.900       .  S
O500        C502   1.271       .  A
Ni501       O504   1.908       .  S
Ni501       O506   1.891       .  S
C502        O512   1.276       .  A
C502        C554   1.470       .  S
O503       Ni519   1.941       .  S
O503        C509   1.287       .  A
O504        C509   1.278       .  A
O506        C508   1.263       .  A
O507       Ni518   1.922       .  S
C508        O514   1.268       .  A
C508        C658   1.469   1_655  S
H510        O511   0.966       .  S
O511       Ni519   1.926       .  S
O511       Ni513   1.926       .  S
O511       Ni518   1.903       .  S
O512       Ni513   1.940       .  S
Ni513       O517   1.953       .  S
Ni513       O515   1.913       .  S
O514       Ni519   1.935       .  S
C516        O517   1.273       .  A
O521       Ni527   1.904       .  S
O521        C542   1.265       .  A
O522       Ni545   1.902       .  S
O522        C531   1.267       .  A
O523       Ni527   1.884       .  S
O523       Ni545   1.886       .  S
O523       Ni539   1.916       .  S
O523        H546   0.967       .  S
C524        O541   1.275   1_556  A
C524        O533   1.274   1_556  A
C524       C1393   1.470       .  S
O525       Ni544   1.930       .  S
O525        C531   1.271       .  A
O526       Ni544   1.899       .  S
O526        C528   1.270       .  A
Ni527       O530   1.915       .  S
Ni527       O532   1.897       .  S
C528        O538   1.276       .  A
O529       Ni545   1.936       .  S
O529        C535   1.284       .  A
O530        C535   1.278       .  A
C531        C583   1.458       .  S
O532        C534   1.265       .  A
O533       Ni544   1.924       .  S
C534        O540   1.269       .  A
C534        C788   1.472       .  S
C535        C550   1.470       .  S
H536        O537   0.966       .  S
O537       Ni545   1.923       .  S
O537       Ni539   1.923       .  S
O537       Ni544   1.903       .  S
O538       Ni539   1.940       .  S
Ni539       O543   1.945       .  S
Ni539       O541   1.911       .  S
O540       Ni545   1.935       .  S
C542        O543   1.272       .  A
O547       Ni553   1.904       .  S
O547        C568   1.265       .  A
O548       Ni571   1.902       .  S
O548        C557   1.267       .  A
O549       Ni553   1.884       .  S
O549       Ni571   1.886       .  S
O549       Ni565   1.916       .  S
O549        H572   0.967       .  S
C550        O567   1.275       .  A
C550        O559   1.274       .  A
O551       Ni570   1.930       .  S
O551        C557   1.271       .  A
O552       Ni570   1.899       .  S
O552        C554   1.270       .  A
Ni553       O556   1.915       .  S
Ni553       O558   1.897       .  S
C554        O564   1.276       .  A
O555       Ni571   1.936       .  S
O555        C561   1.284       .  A
O556        C561   1.278       .  A
C557        C609   1.458       .  S
O558        C560   1.265       .  A
O559       Ni570   1.924       .  S
C560        O566   1.269       .  A
C560        C814   1.472       .  S
C561       C1356   1.470       .  S
H562        O563   0.966       .  S
O563       Ni571   1.923       .  S
O563       Ni565   1.923       .  S
O563       Ni570   1.903       .  S
O564       Ni565   1.940       .  S
Ni565       O569   1.945       .  S
Ni565       O567   1.911       .  S
O566       Ni571   1.935       .  S
C568        O569   1.272       .  A
O573       Ni579   1.893       .  S
O573        C594   1.260       .  A
O574       Ni597   1.901       .  S
O574        C583   1.267       .  A
O575       Ni579   1.882       .  S
O575       Ni597   1.881       .  S
O575       Ni591   1.919       .  S
O575        H598   0.967       .  S
C576        O593   1.276       .  A
C576        O585   1.274       .  A
C576        C613   1.468       .  S
O577       Ni596   1.931       .  S
O577        C583   1.272       .  A
O578       Ni596   1.900       .  S
O578        C580   1.271       .  A
Ni579       O582   1.908       .  S
Ni579       O584   1.892       .  S
C580        O590   1.276       .  A
O581       Ni597   1.940       .  S
O581        C587   1.287       .  A
O582        C587   1.278       .  A
O584        C586   1.263       .  A
O585       Ni596   1.922       .  S
C586        O592   1.269       .  A
C586        C736   1.469       .  S
C587        C602   1.468       .  S
H588        O589   0.966       .  S
O589       Ni597   1.926       .  S
O589       Ni591   1.926       .  S
O589       Ni596   1.903       .  S
O590       Ni591   1.939       .  S
Ni591       O595   1.954       .  S
Ni591       O593   1.913       .  S
O592       Ni597   1.934       .  S
C594        O595   1.273       .  A
O599       Ni605   1.893       .  S
O599        C620   1.260       .  A
O600       Ni623   1.901       .  S
O600        C609   1.267       .  A
O601       Ni605   1.882       .  S
O601       Ni623   1.881       .  S
O601       Ni617   1.919       .  S
O601        H624   0.967       .  S
C602        O611   1.274       .  A
C602       O1451   1.276   1_554  A
O603       Ni622   1.931       .  S
O603        C609   1.272       .  A
O604       Ni622   1.900       .  S
O604        C606   1.271       .  A
Ni605       O608   1.908       .  S
Ni605       O610   1.892       .  S
C606        O616   1.276       .  A
O607       Ni623   1.940       .  S
O607        C613   1.287       .  A
O608        C613   1.278       .  A
O610        C612   1.263       .  A
O611      Ni1454   1.922   1_554  S
C612        O618   1.269       .  A
C612        C762   1.469       .  S
H614        O615   0.966       .  S
O615       Ni623   1.926       .  S
O615       Ni617   1.925       .  S
O615       Ni622   1.903       .  S
O616       Ni617   1.939       .  S
Ni617       O621   1.954       .  S
Ni617       O619   1.913       .  S
O618       Ni623   1.934       .  S
O619       C1434   1.276       .  A
C620        O621   1.273       .  A
Ni622      O1443   1.922       .  S
O625       Ni631   1.931       .  S
O625        C646   1.272       .  A
O626       Ni649   1.953       .  S
O626        C635   1.273       .  A
O627       Ni631   1.901       .  S
O627       Ni649   1.924       .  S
O627      Ni1475   1.925       .  S
O627        H650   0.966       .  S
C628        O645   1.287       .  A
C628        O637   1.278       .  A
C628        C665   1.469       .  S
O629      Ni1480   1.894   1_554  S
O629        C635   1.260       .  A
O630       Ni648   1.892       .  S
O630        C632   1.263       .  A
Ni631       O634   1.923       .  S
Ni631       O636   1.900       .  S
C632        O642   1.268       .  A
O633       Ni649   1.913       .  S
O633        C639   1.277       .  A
O634        C639   1.274       .  A
O636        C638   1.271       .  A
O637       Ni648   1.909       .  S
C638        O644   1.276       .  A
C638        C794   1.470       .  S
C639        C654   1.469       .  S
H640        O641   0.966       .  S
O641       Ni643   1.881       .  S
O641       Ni648   1.882       .  S
O641      Ni1481   1.919       .  S
O642       Ni643   1.934       .  S
Ni643       O647   1.900       .  S
Ni643       O645   1.942       .  S
Ni643      O1459   1.925       .  S
O644       Ni649   1.939       .  S
C646       O1479   1.267   1_554  A
C646        C724   1.457   1_554  S
O647       C1478   1.267       .  A
Ni648      O1461   1.894       .  S
Ni649      O1473   1.919       .  S
O651       Ni657   1.931       .  S
O651        C672   1.272       .  A
O652       Ni675   1.953       .  S
O652        C661   1.273       .  A
O653       Ni657   1.901       .  S
O653       Ni675   1.924       .  S
O653       Ni669   1.925       .  S
O653        H676   0.966       .  S
C654        O671   1.287       .  A
C654        O663   1.278       .  A
O655       Ni674   1.894       .  S
O655        C661   1.260       .  A
O656       Ni674   1.892       .  S
O656        C658   1.263       .  A
Ni657       O660   1.923       .  S
Ni657       O662   1.900       .  S
C658        O668   1.268       .  A
O659       Ni675   1.913       .  S
O659        C665   1.277       .  A
O660        C665   1.274       .  A
O662        C664   1.271       .  A
O663       Ni674   1.909       .  S
C664        O670   1.276       .  A
C664        C820   1.470       .  S
H666        O667   0.966       .  S
O667       Ni675   1.919       .  S
O667       Ni669   1.881       .  S
O667       Ni674   1.882       .  S
O668       Ni669   1.934       .  S
Ni669       O673   1.900       .  S
Ni669       O671   1.941       .  S
O670       Ni675   1.939       .  S
C672        O673   1.267       .  A
C672        C698   1.457       .  S
O677       Ni683   1.929       .  S
O677        C698   1.271       .  A
O678       Ni701   1.947       .  S
O678        C687   1.272       .  A
O679       Ni683   1.903       .  S
O679       Ni701   1.923       .  S
O679       Ni695   1.924       .  S
O679        H702   0.966       .  S
C680        O697   1.285       .  A
C680        O689   1.278       .  A
C680        C717   1.468       .  S
O681       Ni700   1.902       .  S
O681        C687   1.264       .  A
O682       Ni700   1.896       .  S
O682        C684   1.264       .  A
Ni683       O686   1.922       .  S
Ni683       O688   1.899       .  S
C684        O694   1.270       .  A
O685       Ni701   1.912       .  S
O685        C691   1.275       .  A
O686        C691   1.274       .  A
O688        C690   1.270       .  A
O689       Ni700   1.913       .  S
C690        O696   1.276       .  A
C690        C742   1.470       .  S
C691        C706   1.468       .  S
H692        O693   0.967       .  S
O693       Ni701   1.917       .  S
O693       Ni695   1.884       .  S
O693       Ni700   1.883       .  S
O694       Ni695   1.936       .  S
Ni695       O699   1.902       .  S
Ni695       O697   1.935       .  S
O696       Ni701   1.940       .  S
C698        O699   1.267       .  A
O703       Ni709   1.929       .  S
O703       C1556   1.271       .  A
O704       Ni727   1.947       .  S
O704        C713   1.272       .  A
O705       Ni709   1.903       .  S
O705       Ni727   1.923       .  S
O705      Ni1553   1.924       .  S
O705        H728   0.966       .  S
C706        O723   1.285       .  A
C706        O715   1.278       .  A
O707       Ni726   1.902   1_556  S
O707       C1545   1.264       .  A
O708       Ni726   1.896       .  S
O708        C710   1.264       .  A
Ni709       O712   1.922       .  S
Ni709       O714   1.899       .  S
C710        O720   1.270       .  A
O711       Ni727   1.912       .  S
O711        C717   1.275       .  A
O712        C717   1.274       .  A
C713       O1539   1.264       .  A
O714        C716   1.270       .  A
O715       Ni726   1.913       .  S
C716        O722   1.276       .  A
C716        C768   1.470       .  S
H718        O719   0.967   1_554  S
O719       Ni721   1.884   1_556  S
O719       Ni726   1.883   1_556  S
O719      Ni1559   1.917       .  S
O720       Ni721   1.936       .  S
Ni721       O725   1.902       .  S
Ni721       O723   1.935       .  S
Ni721      O1537   1.924   1_554  S
O722       Ni727   1.940       .  S
C724        O725   1.267   1_556  A
C724       O1535   1.271       .  A
Ni727      O1551   1.917       .  S
O729       Ni735   1.932       .  S
O729        C750   1.272       .  A
O730       Ni753   1.953       .  S
O730        C739   1.273       .  A
O731       Ni735   1.901       .  S
O731       Ni753   1.924       .  S
O731       Ni747   1.924       .  S
O731        H754   0.966       .  S
C732        O749   1.287       .  A
C732        O741   1.278       .  A
C732        C769   1.469       .  S
O733       Ni752   1.894       .  S
O733        C739   1.260       .  A
O734       Ni752   1.893       .  S
O734        C736   1.263       .  A
Ni735       O738   1.924       .  S
Ni735       O740   1.900       .  S
C736        O746   1.268       .  A
O737       Ni753   1.913       .  S
O737        C743   1.277       .  A
O738        C743   1.274       .  A
O740        C742   1.271       .  A
O741       Ni752   1.909       .  S
C742        O748   1.276       .  A
C743        C758   1.469       .  S
H744        O745   0.967       .  S
O745       Ni753   1.919       .  S
O745       Ni747   1.882       .  S
O745       Ni752   1.883       .  S
O746       Ni747   1.933       .  S
Ni747       O751   1.900       .  S
Ni747       O749   1.941       .  S
O748       Ni753   1.939       .  S
C750        O751   1.267       .  A
C750        C802   1.458       .  S
O755       Ni761   1.932       .  S
O755        C776   1.272       .  A
O756       Ni779   1.953       .  S
O756        C765   1.273       .  A
O757       Ni761   1.901       .  S
O757       Ni779   1.924       .  S
O757       Ni773   1.924       .  S
O757        H780   0.966       .  S
C758        O775   1.287       .  A
C758        O767   1.278       .  A
O759       Ni778   1.894       .  S
O759        C765   1.260       .  A
O760       Ni778   1.893       .  S
O760        C762   1.263       .  A
Ni761       O764   1.924       .  S
Ni761       O766   1.900       .  S
C762        O772   1.268       .  A
O763       Ni779   1.913       .  S
O763       C1601   1.277       .  A
O764       C1601   1.274       .  A
O766        C768   1.271       .  A
O767       Ni778   1.909       .  S
C768        O774   1.276       .  A
C769       O1595   1.277   1_554  A
C769       O1596   1.274       .  A
H770        O771   0.967       .  S
O771       Ni779   1.919       .  S
O771       Ni773   1.882       .  S
O771       Ni778   1.883       .  S
O772       Ni773   1.933       .  S
Ni773       O777   1.900       .  S
Ni773       O775   1.941       .  S
O774       Ni779   1.939       .  S
C776        O777   1.267       .  A
C776        C828   1.458       .  S
O781       Ni787   1.929       .  S
O781        C802   1.271       .  A
O782       Ni805   1.946       .  S
O782        C791   1.272       .  A
O783       Ni787   1.905       .  S
O783       Ni805   1.925       .  S
O783       Ni799   1.925       .  S
O783        H806   0.966       .  S
C784        O801   1.284       .  A
C784        O793   1.278       .  A
C784        C821   1.469       .  S
O785       Ni804   1.903       .  S
O785        C791   1.265       .  A
O786       Ni804   1.896       .  S
O786        C788   1.264       .  A
Ni787       O790   1.923       .  S
Ni787       O792   1.899       .  S
C788        O798   1.270       .  A
O789       Ni805   1.911       .  S
O789        C795   1.275   1_554  A
O790        C795   1.274   1_554  A
O792        C794   1.270       .  A
O793       Ni804   1.914       .  S
C794        O800   1.276       .  A
C795       C1642   1.469       .  S
H796        O797   0.966       .  S
O797       Ni805   1.916       .  S
O797       Ni799   1.885       .  S
O797       Ni804   1.883       .  S
O798       Ni799   1.936       .  S
Ni799       O803   1.902       .  S
Ni799       O801   1.935       .  S
O800       Ni805   1.939       .  S
C802        O803   1.267       .  A
O807       Ni813   1.929       .  S
O807        C828   1.271       .  A
O808       Ni831   1.946       .  S
O808        C817   1.272       .  A
O809       Ni813   1.905       .  S
O809       Ni831   1.925       .  S
O809       Ni825   1.925       .  S
O809        H832   0.966       .  S
C810        O827   1.284       .  A
C810        O819   1.278       .  A
C810       C1627   1.469       .  S
O811       Ni830   1.903       .  S
O811        C817   1.265       .  A
O812       Ni830   1.896       .  S
O812        C814   1.264       .  A
Ni813       O816   1.923       .  S
Ni813       O818   1.899       .  S
C814        O824   1.270       .  A
O815       Ni831   1.911       .  S
O815        C821   1.275       .  A
O816        C821   1.274       .  A
O818        C820   1.270       .  A
O819       Ni830   1.914       .  S
C820        O826   1.276       .  A
H822        O823   0.966       .  S
O823       Ni831   1.916       .  S
O823       Ni825   1.885       .  S
O823       Ni830   1.883       .  S
O824       Ni825   1.936       .  S
Ni825       O829   1.902       .  S
Ni825       O827   1.935       .  S
O826       Ni831   1.939       .  S
C828        O829   1.267       .  A
O833       Ni839   1.932       .  S
O833        C854   1.272       .  A
O834       Ni857   1.954       .  S
O834        C843   1.273       .  A
O835       Ni839   1.903       .  S
O835       Ni857   1.926       .  S
O835       Ni851   1.926       .  S
O835        H858   0.966       .  S
C836        O853   1.287       .  A
C836        O845   1.278       .  A
C836        C873   1.468       .  S
O837       Ni856   1.893       .  S
O837        C843   1.260       .  A
O838       Ni856   1.892       .  S
O838        C840   1.263       .  A
Ni839       O844   1.900       .  S
C840        O850   1.268       .  A
C840       C1106   1.469       .  S
O841       Ni857   1.913       .  S
O842        C847   1.274       .  A
C843       C1374   1.472       .  S
O844        C846   1.271       .  A
O845       Ni856   1.909       .  S
C846        O852   1.276       .  A
C846        C898   1.470       .  S
C847        C862   1.468       .  S
H848        O849   0.967       .  S
O849       Ni857   1.919       .  S
O849       Ni851   1.880       .  S
O849       Ni856   1.882       .  S
O850       Ni851   1.934       .  S
Ni851       O855   1.900       .  S
Ni851       O853   1.941       .  S
O852       Ni857   1.939       .  S
C854        O855   1.266       .  A
C854       C1010   1.458   1_565  S
O859       Ni865   1.932       .  S
O859        C880   1.272       .  A
O860       Ni883   1.954       .  S
O860        C869   1.273       .  A
O861       Ni865   1.903       .  S
O861       Ni883   1.926       .  S
O861       Ni877   1.926       .  S
O861        H884   0.966       .  S
C862        O879   1.287       .  A
C862        O871   1.278       .  A
O863       Ni882   1.893       .  S
O863        C869   1.260       .  A
O864       Ni882   1.892       .  S
O864        C866   1.263       .  A
Ni865       O868   1.923       .  S
Ni865       O870   1.900       .  S
C866        O876   1.268       .  A
C866       C1132   1.469       .  S
O867       Ni883   1.913       .  S
O867        C873   1.276       .  A
O868        C873   1.274       .  A
C869       C1400   1.472       .  S
O870        C872   1.271       .  A
O871       Ni882   1.909       .  S
C872        O878   1.276       .  A
C872        C924   1.470       .  S
H874        O875   0.967       .  S
O875       Ni883   1.919       .  S
O875       Ni877   1.880       .  S
O875       Ni882   1.882       .  S
O876       Ni877   1.934       .  S
Ni877       O881   1.900       .  S
Ni877       O879   1.941       .  S
O878       Ni883   1.939       .  S
C880        O881   1.266       .  A
C880       C1036   1.458   1_565  S
O885       Ni891   1.929       .  S
O886       Ni909   1.945       .  S
O886        C895   1.272       .  A
O887       Ni891   1.903       .  S
O887       Ni909   1.923       .  S
O887        H910   0.966       .  S
C888        O905   1.284       .  A
C888        O897   1.278       .  A
C888        C925   1.469       .  S
O889       Ni908   1.904   1_554  S
O890       Ni908   1.896       .  S
O890        C892   1.264       .  A
Ni891       O894   1.924       .  S
Ni891       O896   1.899       .  S
C892        O902   1.270       .  A
C892       C1054   1.472   1_655  S
O893       Ni909   1.912       .  S
O893        C899   1.275       .  A
O894        C899   1.274       .  A
C895       C1322   1.471       .  S
O896        C898   1.270       .  A
O897       Ni908   1.914       .  S
C898        O904   1.276       .  A
C899        C914   1.469       .  S
H900        O901   0.966   1_556  S
O901       Ni903   1.886   1_554  S
O901       Ni908   1.884   1_554  S
O902       Ni903   1.936       .  S
Ni903       O907   1.902       .  S
Ni903       O905   1.936       .  S
O904       Ni909   1.940       .  S
C906        O907   1.267   1_554  A
C906        C984   1.457   1_564  S
O911       Ni917   1.929       .  S
O911        C932   1.271       .  A
O912       Ni935   1.945       .  S
O912        C921   1.272       .  A
O913       Ni917   1.903       .  S
O913       Ni935   1.923       .  S
O913       Ni929   1.923       .  S
O913        H936   0.966       .  S
C914        O931   1.284       .  A
C914        O923   1.278       .  A
O915       Ni934   1.904       .  S
O915        C921   1.265       .  A
O916       Ni934   1.896       .  S
O916        C918   1.264       .  A
Ni917       O920   1.924       .  S
Ni917       O922   1.899       .  S
C918        O928   1.270       .  A
C918       C1080   1.472   1_655  S
O919       Ni935   1.912       .  S
O919        C925   1.275       .  A
O920        C925   1.274       .  A
C921       C1348   1.471       .  S
O922        C924   1.270       .  A
O923       Ni934   1.914       .  S
C924        O930   1.276       .  A
H926        O927   0.966       .  S
O927       Ni935   1.916       .  S
O927       Ni929   1.886       .  S
O927       Ni934   1.884       .  S
O928       Ni929   1.936       .  S
Ni929       O933   1.902       .  S
Ni929       O931   1.936       .  S
O930       Ni935   1.940       .  S
C932        O933   1.267       .  A
C932        C958   1.457   1_565  S
O937       Ni943   1.930       .  S
O937        C958   1.272       .  A
O938       Ni961   1.954       .  S
O938        C947   1.273       .  A
O939       Ni943   1.902       .  S
O939       Ni961   1.925       .  S
O939       Ni955   1.925       .  S
O939        H962   0.966       .  S
C940        O957   1.287       .  A
C940        O949   1.278       .  A
C940        C977   1.468       .  S
O941       Ni960   1.893       .  S
O941        C947   1.260       .  A
O942       Ni960   1.892       .  S
O942        C944   1.263       .  A
Ni943       O946   1.921       .  S
Ni943       O948   1.900       .  S
C944        O954   1.268       .  A
C944       C1210   1.469   1_655  S
O945       Ni961   1.914       .  S
O945        C951   1.277       .  A
O946        C951   1.274       .  A
C947       C1270   1.472       .  S
O948        C950   1.271       .  A
O949       Ni960   1.908       .  S
C950        O956   1.276       .  A
C950       C1002   1.470       .  S
C951        C966   1.468       .  S
H952        O953   0.967       .  S
O953       Ni961   1.920       .  S
O953       Ni955   1.881       .  S
O953       Ni960   1.882       .  S
O954       Ni955   1.934       .  S
Ni955       O959   1.901       .  S
Ni955       O957   1.940       .  S
O956       Ni961   1.939       .  S
C958        O959   1.267       .  A
O963       Ni969   1.930       .  S
O963        C984   1.271       .  A
O964       Ni987   1.954       .  S
O964        C973   1.273       .  A
O965       Ni969   1.902       .  S
O965       Ni987   1.925       .  S
O965        H988   0.966       .  S
C966        O983   1.287       .  A
C966        O975   1.278       .  A
O967        C973   1.260       .  A
O968       Ni986   1.892       .  S
O968        C970   1.263       .  A
Ni969       O972   1.921       .  S
Ni969       O974   1.900       .  S
C970        O980   1.268       .  A
C970       C1236   1.469   1_655  S
O971       Ni987   1.914       .  S
O971        C977   1.277       .  A
O972        C977   1.274       .  A
C973       C1296   1.472       .  S
O974        C976   1.271       .  A
O975       Ni986   1.908       .  S
C976        O982   1.276       .  A
C976       C1028   1.470       .  S
H978        O979   0.967       .  S
O979       Ni981   1.881       .  S
O979       Ni986   1.882       .  S
O980       Ni981   1.934       .  S
Ni981       O985   1.901       .  S
Ni981       O983   1.940       .  S
O982       Ni987   1.939       .  S
O989       Ni995   1.931       .  S
O989       C1010   1.271       .  A
O990      Ni1013   1.946       .  S
O990        C999   1.272       .  A
O991       Ni995   1.903       .  S
O991      Ni1013   1.924       .  S
O991      Ni1007   1.923       .  S
O991       H1014   0.966       .  S
C992       O1009   1.284       .  A
C992       O1001   1.278       .  A
O993      Ni1012   1.903       .  S
O993        C999   1.265       .  A
O994      Ni1012   1.896       .  S
O994        C996   1.264       .  A
Ni995       O998   1.924       .  S
Ni995      O1000   1.899       .  S
C996       O1006   1.269       .  A
C996       C1158   1.472       .  S
O997      Ni1013   1.911       .  S
O997       C1003   1.275       .  A
O998       C1003   1.274       .  A
C999       C1426   1.472       .  S
O1000      C1002   1.270       .  A
O1001     Ni1012   1.914       .  S
C1002      O1008   1.276       .  A
C1003      C1018   1.469       .  S
H1004      O1005   0.966       .  S
O1005     Ni1013   1.917       .  S
O1005     Ni1007   1.886       .  S
O1005     Ni1012   1.884       .  S
O1006     Ni1007   1.935       .  S
Ni1007     O1011   1.902       .  S
Ni1007     O1009   1.935       .  S
O1008     Ni1013   1.940       .  S
C1010      O1011   1.267       .  A
O1015     Ni1021   1.931       .  S
O1015      C1036   1.271       .  A
O1016     Ni1039   1.946       .  S
O1016      C1025   1.272       .  A
O1017     Ni1021   1.903       .  S
O1017     Ni1039   1.924       .  S
O1017     Ni1033   1.923       .  S
O1017      H1040   0.966       .  S
C1018      O1035   1.284       .  A
C1018      O1027   1.278       .  A
O1019     Ni1038   1.903       .  S
O1019      C1025   1.265       .  A
O1020     Ni1038   1.896       .  S
O1020      C1022   1.264       .  A
Ni1021     O1024   1.924       .  S
Ni1021     O1026   1.899       .  S
C1022      O1032   1.269       .  A
C1022      C1184   1.472       .  S
O1023     Ni1039   1.911       .  S
O1023      C1029   1.275   1_556  A
O1024      C1029   1.274   1_556  A
C1025      C1452   1.472       .  S
O1026      C1028   1.270       .  A
O1027     Ni1038   1.914       .  S
C1028      O1034   1.276       .  A
H1030      O1031   0.966       .  S
O1031     Ni1039   1.917       .  S
O1031     Ni1033   1.886       .  S
O1031     Ni1038   1.884       .  S
O1032     Ni1033   1.935       .  S
Ni1033     O1037   1.902       .  S
Ni1033     O1035   1.935       .  S
O1034     Ni1039   1.940       .  S
C1036      O1037   1.267       .  A
O1041      C1062   1.264       .  A
O1042     Ni1065   1.902       .  S
O1043     Ni1047   1.883   1_554  S
O1043     Ni1065   1.885   1_554  S
O1043      H1066   0.966   1_554  S
C1044      O1061   1.275       .  A
C1044      O1053   1.274       .  A
C1044      C1081   1.469       .  S
O1045     Ni1064   1.929       .  S
O1045      C1051   1.271       .  A
O1046     Ni1064   1.899       .  S
O1046      C1048   1.270       .  A
Ni1047     O1050   1.914       .  S
Ni1047     O1052   1.896       .  S
C1048      O1058   1.276       .  A
C1048      C1100   1.470       .  S
O1049     Ni1065   1.935       .  S
O1049      C1055   1.285       .  A
O1050      C1055   1.278       .  A
O1052      C1054   1.264       .  A
O1053     Ni1064   1.923       .  S
C1054      O1060   1.270       .  A
C1055      C1070   1.469       .  S
H1056      O1057   0.966       .  S
O1057     Ni1059   1.924       .  S
O1057     Ni1064   1.904       .  S
O1058     Ni1059   1.939       .  S
Ni1059     O1063   1.946       .  S
Ni1059     O1061   1.912       .  S
O1060     Ni1065   1.936       .  S
C1062      O1063   1.272       .  A
C1062      C1467   1.471       .  S
O1067     Ni1073   1.902       .  S
O1067      C1088   1.264       .  A
O1068     Ni1091   1.902       .  S
O1068      C1077   1.267       .  A
O1069     Ni1073   1.883       .  S
O1069     Ni1091   1.885       .  S
O1069     Ni1085   1.916       .  S
O1069      H1092   0.966       .  S
C1070      O1087   1.275       .  A
C1070      O1079   1.274       .  A
O1071     Ni1090   1.929       .  S
O1071      C1077   1.271       .  A
O1072     Ni1090   1.899       .  S
O1072      C1074   1.270       .  A
Ni1073     O1076   1.914       .  S
Ni1073     O1078   1.896       .  S
C1074      O1084   1.276       .  A
C1074      C1126   1.470       .  S
O1075     Ni1091   1.935       .  S
O1075      C1081   1.285       .  A
O1076      C1081   1.278       .  A
C1077      C1207   1.457   1_565  S
O1078      C1080   1.264       .  A
O1079     Ni1090   1.923       .  S
C1080      O1086   1.270       .  A
H1082      O1083   0.966       .  S
O1083     Ni1091   1.924       .  S
O1083     Ni1085   1.924       .  S
O1083     Ni1090   1.904       .  S
O1084     Ni1085   1.939       .  S
Ni1085     O1089   1.946       .  S
Ni1085     O1087   1.912       .  S
O1086     Ni1091   1.936       .  S
C1088      O1089   1.272       .  A
C1088      C1493   1.471       .  S
O1093     Ni1099   1.894       .  S
O1093      C1114   1.260       .  A
O1094     Ni1117   1.900       .  S
O1094      C1103   1.266       .  A
O1095     Ni1099   1.881       .  S
O1095     Ni1117   1.880       .  S
O1095     Ni1111   1.919       .  S
O1095      H1118   0.966       .  S
C1096      O1113   1.276       .  A
C1096      O1105   1.274       .  A
O1097     Ni1116   1.931       .  S
O1097      C1103   1.272       .  A
O1098     Ni1116   1.900       .  S
O1098      C1100   1.271       .  A
Ni1099     O1102   1.909       .  S
Ni1099     O1104   1.892       .  S
C1100      O1110   1.276       .  A
O1101     Ni1117   1.941       .  S
O1101      C1107   1.287       .  A
O1102      C1107   1.278       .  A
C1103      C1155   1.457   1_565  S
O1104      C1106   1.263       .  A
O1105     Ni1116   1.924       .  S
C1106      O1112   1.268       .  A
C1107      C1122   1.469       .  S
H1108      O1109   0.966       .  S
O1109     Ni1117   1.926       .  S
O1109     Ni1111   1.925       .  S
O1109     Ni1116   1.902       .  S
O1110     Ni1111   1.939       .  S
Ni1111     O1115   1.953       .  S
Ni1111     O1113   1.912       .  S
O1112     Ni1117   1.934       .  S
C1114      O1115   1.273       .  A
C1114      C1623   1.471       .  S
O1119     Ni1125   1.894       .  S
O1119      C1140   1.260       .  A
O1120     Ni1143   1.900       .  S
O1120      C1129   1.266       .  A
O1121     Ni1125   1.881       .  S
O1121     Ni1143   1.880       .  S
O1121     Ni1137   1.919       .  S
O1121      H1144   0.966       .  S
C1122      O1139   1.276       .  A
C1122      O1131   1.274       .  A
O1123     Ni1142   1.931       .  S
O1123      C1129   1.272       .  A
O1124     Ni1142   1.900       .  S
O1124      C1126   1.271       .  A
Ni1125     O1128   1.909       .  S
Ni1125     O1130   1.892       .  S
C1126      O1136   1.276       .  A
O1127     Ni1143   1.941       .  S
O1127      C1133   1.287       .  A
O1128      C1133   1.278       .  A
C1129      C1181   1.457   1_565  S
O1130      C1132   1.263       .  A
O1131     Ni1142   1.924       .  S
C1132      O1138   1.268       .  A
H1134      O1135   0.966       .  S
O1135     Ni1143   1.926       .  S
O1135     Ni1137   1.925       .  S
O1135     Ni1142   1.902       .  S
O1136     Ni1137   1.939       .  S
Ni1137     O1141   1.953       .  S
Ni1137     O1139   1.912       .  S
O1138     Ni1143   1.934       .  S
C1140      O1141   1.273       .  A
C1140      C1649   1.471       .  S
O1145     Ni1151   1.902       .  S
O1145      C1166   1.264       .  A
O1146     Ni1169   1.902       .  S
O1146      C1155   1.267       .  A
O1147     Ni1151   1.884       .  S
O1147     Ni1169   1.885       .  S
O1147     Ni1163   1.917       .  S
O1147      H1170   0.967       .  S
C1148      O1165   1.275       .  A
C1148      O1157   1.274       .  A
C1148      C1185   1.469       .  S
O1149     Ni1168   1.930       .  S
O1149      C1155   1.271       .  A
O1150     Ni1168   1.899       .  S
O1150      C1152   1.270       .  A
Ni1151     O1154   1.914       .  S
Ni1151     O1156   1.896       .  S
C1152      O1162   1.276       .  A
C1152      C1204   1.470       .  S
O1153     Ni1169   1.935       .  S
O1153      C1159   1.284       .  A
O1154      C1159   1.278       .  A
O1156      C1158   1.264       .  A
O1157     Ni1168   1.923       .  S
C1158      O1164   1.269       .  A
H1160      O1161   0.966       .  S
O1161     Ni1169   1.923       .  S
O1161     Ni1163   1.923       .  S
O1161     Ni1168   1.903       .  S
O1162     Ni1163   1.940       .  S
Ni1163     O1167   1.947       .  S
Ni1163     O1165   1.912       .  S
O1164     Ni1169   1.935       .  S
C1166      O1167   1.272       .  A
C1166      C1571   1.472       .  S
O1171     Ni1177   1.902       .  S
O1171      C1192   1.264       .  A
O1172     Ni1195   1.902       .  S
O1172      C1181   1.267       .  A
O1173     Ni1177   1.884       .  S
O1173     Ni1195   1.885       .  S
O1173     Ni1189   1.917       .  S
O1173      H1196   0.967       .  S
C1174      O1191   1.275   1_554  A
C1174      O1183   1.274   1_554  A
O1175     Ni1194   1.930       .  S
O1175      C1181   1.271       .  A
O1176     Ni1194   1.899       .  S
O1176      C1178   1.270       .  A
Ni1177     O1180   1.914       .  S
Ni1177     O1182   1.896       .  S
C1178      O1188   1.276       .  A
C1178      C1230   1.470       .  S
O1179     Ni1195   1.935       .  S
O1179      C1185   1.284       .  A
O1180      C1185   1.278       .  A
O1182      C1184   1.264       .  A
O1183     Ni1194   1.923       .  S
C1184      O1190   1.269       .  A
H1186      O1187   0.966       .  S
O1187     Ni1195   1.923       .  S
O1187     Ni1189   1.923       .  S
O1187     Ni1194   1.903       .  S
O1188     Ni1189   1.940       .  S
Ni1189     O1193   1.947       .  S
Ni1189     O1191   1.912       .  S
O1190     Ni1195   1.935       .  S
C1192      O1193   1.272       .  A
C1192      C1597   1.472       .  S
O1197     Ni1203   1.894       .  S
O1197      C1218   1.261       .  A
O1198     Ni1221   1.901       .  S
O1198      C1207   1.267       .  A
O1199     Ni1203   1.882       .  S
O1199     Ni1221   1.882       .  S
O1199     Ni1215   1.919       .  S
O1199      H1222   0.967       .  S
C1200      O1217   1.277       .  A
C1200      O1209   1.274       .  A
C1200      C1237   1.468       .  S
O1201     Ni1220   1.931       .  S
O1201      C1207   1.272       .  A
O1202     Ni1220   1.900       .  S
O1202      C1204   1.271       .  A
Ni1203     O1206   1.909       .  S
Ni1203     O1208   1.892       .  S
C1204      O1214   1.276       .  A
O1205     Ni1221   1.940       .  S
O1205      C1211   1.287       .  A
O1206      C1211   1.278       .  A
O1208      C1210   1.263       .  A
O1209     Ni1220   1.923       .  S
C1210      O1216   1.268       .  A
C1211      C1226   1.468       .  S
H1212      O1213   0.966       .  S
O1213     Ni1221   1.924       .  S
O1213     Ni1215   1.924       .  S
O1213     Ni1220   1.901       .  S
O1214     Ni1215   1.939       .  S
Ni1215     O1219   1.952       .  S
Ni1215     O1217   1.913       .  S
O1216     Ni1221   1.934       .  S
C1218      O1219   1.273       .  A
C1218      C1519   1.471       .  S
O1223      C1244   1.261       .  A
O1224     Ni1247   1.901       .  S
O1225     Ni1229   1.882       .  S
O1225     Ni1247   1.881       .  S
O1225      H1248   0.967       .  S
C1226      O1243   1.277       .  A
C1226      O1235   1.274       .  A
O1227     Ni1246   1.931       .  S
O1227      C1233   1.272       .  A
O1228     Ni1246   1.900       .  S
O1228      C1230   1.271       .  A
Ni1229     O1232   1.909       .  S
Ni1229     O1234   1.892       .  S
C1230      O1240   1.276       .  A
O1231     Ni1247   1.941       .  S
O1231      C1237   1.287       .  A
O1232      C1237   1.278       .  A
O1234      C1236   1.263       .  A
O1235     Ni1246   1.923       .  S
C1236      O1242   1.268       .  A
H1238      O1239   0.966       .  S
O1239     Ni1241   1.924       .  S
O1239     Ni1246   1.901       .  S
O1240     Ni1241   1.939       .  S
Ni1241     O1245   1.952       .  S
Ni1241     O1243   1.913       .  S
O1242     Ni1247   1.934       .  S
C1244      O1245   1.273       .  A
C1244      C1545   1.471       .  S
O1249     Ni1255   1.903       .  S
O1249      C1270   1.264       .  A
O1250     Ni1273   1.902       .  S
O1250      C1259   1.267       .  A
O1251     Ni1255   1.884       .  S
O1251     Ni1273   1.886       .  S
O1251     Ni1267   1.917       .  S
O1251      H1274   0.966       .  S
C1252      O1269   1.275       .  A
C1252      O1261   1.274       .  A
C1252      C1289   1.469       .  S
O1253     Ni1272   1.930       .  S
O1253      C1259   1.271       .  A
O1254     Ni1272   1.899       .  S
O1254      C1256   1.270       .  A
Ni1255     O1258   1.914       .  S
Ni1255     O1260   1.896       .  S
C1256      O1266   1.276       .  A
C1256      C1412   1.470       .  S
O1257     Ni1273   1.935       .  S
O1257      C1263   1.284       .  A
O1258      C1263   1.278       .  A
C1259      C1337   1.458       .  S
O1260      C1262   1.264       .  A
O1261     Ni1272   1.924       .  S
C1262      O1268   1.269       .  A
C1262      C1516   1.472   1_655  S
C1263      C1278   1.469       .  S
H1264      O1265   0.966       .  S
O1265     Ni1273   1.923       .  S
O1265     Ni1267   1.923       .  S
O1265     Ni1272   1.902       .  S
O1266     Ni1267   1.939       .  S
Ni1267     O1271   1.946       .  S
Ni1267     O1269   1.912       .  S
O1268     Ni1273   1.935       .  S
C1270      O1271   1.272       .  A
O1275     Ni1281   1.903       .  S
O1276     Ni1299   1.902       .  S
O1276      C1285   1.267       .  A
O1277     Ni1281   1.884       .  S
O1277     Ni1299   1.886       .  S
O1277      H1300   0.966       .  S
C1278      O1295   1.275       .  A
C1278      O1287   1.274       .  A
O1279     Ni1298   1.930       .  S
O1280     Ni1298   1.899       .  S
O1280      C1282   1.270       .  A
Ni1281     O1284   1.914       .  S
Ni1281     O1286   1.896       .  S
C1282      O1292   1.276       .  A
C1282      C1438   1.470       .  S
O1283     Ni1299   1.935       .  S
O1283      C1289   1.284       .  A
O1284      C1289   1.278       .  A
C1285      C1311   1.457       .  S
O1286      C1288   1.264       .  A
O1287     Ni1298   1.923       .  S
C1288      O1294   1.269       .  A
C1288      C1542   1.472   1_655  S
H1290      O1291   0.966       .  S
O1291     Ni1293   1.923       .  S
O1291     Ni1298   1.902       .  S
O1292     Ni1293   1.939       .  S
Ni1293     O1297   1.946       .  S
Ni1293     O1295   1.912       .  S
O1294     Ni1299   1.935       .  S
C1296      O1297   1.272       .  A
O1301      C1322   1.260       .  A
O1302     Ni1325   1.901       .  S
O1302      C1311   1.267       .  A
O1303     Ni1325   1.880       .  S
O1303     Ni1319   1.919       .  S
O1303      H1326   0.967       .  S
C1304      O1321   1.276       .  A
C1304      O1313   1.273       .  A
C1304      C1341   1.468       .  S
O1305     Ni1324   1.930       .  S
O1305      C1311   1.272       .  A
O1306     Ni1324   1.900       .  S
O1306      C1308   1.271       .  A
Ni1307     O1310   1.908       .  S
Ni1307     O1312   1.891       .  S
C1308      O1318   1.276       .  A
C1308      C1360   1.470       .  S
O1309      C1315   1.287       .  A
O1310      C1315   1.278       .  A
O1312      C1314   1.263       .  A
O1313     Ni1324   1.922       .  S
C1314      C1464   1.469   1_655  S
C1315      C1330   1.468       .  S
H1316      O1317   0.966       .  S
O1317     Ni1325   1.926       .  S
O1317     Ni1319   1.926       .  S
O1317     Ni1324   1.903       .  S
O1318     Ni1319   1.940       .  S
Ni1319     O1323   1.953       .  S
Ni1319     O1321   1.913       .  S
O1320     Ni1325   1.935       .  S
C1322      O1323   1.273       .  A
O1327     Ni1333   1.893       .  S
O1327      C1348   1.260       .  A
O1328     Ni1351   1.901       .  S
O1328      C1337   1.267       .  A
O1329     Ni1333   1.881       .  S
O1329     Ni1351   1.880       .  S
O1329     Ni1345   1.919       .  S
O1329      H1352   0.967       .  S
C1330      O1347   1.276       .  A
C1330      O1339   1.273       .  A
O1331     Ni1350   1.930       .  S
O1331      C1337   1.272       .  A
O1332     Ni1350   1.900       .  S
O1332      C1334   1.271       .  A
Ni1333     O1336   1.908       .  S
Ni1333     O1338   1.891       .  S
C1334      O1344   1.276       .  A
C1334      C1386   1.470       .  S
O1335     Ni1351   1.941       .  S
O1335      C1341   1.287       .  A
O1336      C1341   1.278       .  A
O1338      C1340   1.263       .  A
O1339     Ni1350   1.922       .  S
C1340      O1346   1.268       .  A
C1340      C1490   1.469   1_655  S
H1342      O1343   0.966       .  S
O1343     Ni1351   1.926       .  S
O1343     Ni1345   1.926       .  S
O1343     Ni1350   1.903       .  S
O1344     Ni1345   1.940       .  S
Ni1345     O1349   1.953       .  S
Ni1345     O1347   1.913       .  S
O1346     Ni1351   1.935       .  S
C1348      O1349   1.273       .  A
O1353     Ni1359   1.904       .  S
O1353      C1374   1.265       .  A
O1354     Ni1377   1.902       .  S
O1354      C1363   1.267       .  A
O1355     Ni1359   1.884       .  S
O1355     Ni1377   1.886       .  S
O1355     Ni1371   1.916       .  S
O1355      H1378   0.967       .  S
C1356      O1373   1.275       .  A
C1356      O1365   1.274       .  A
O1357     Ni1376   1.930       .  S
O1357      C1363   1.271       .  A
O1358     Ni1376   1.899       .  S
O1358      C1360   1.270       .  A
Ni1359     O1362   1.915       .  S
Ni1359     O1364   1.897       .  S
C1360      O1370   1.276       .  A
O1361     Ni1377   1.936       .  S
O1361      C1367   1.284       .  A
O1362      C1367   1.278       .  A
C1363      C1415   1.458       .  S
O1364      C1366   1.265       .  A
O1365     Ni1376   1.924       .  S
C1366      O1372   1.269       .  A
C1366      C1620   1.472       .  S
C1367      C1382   1.470       .  S
H1368      O1369   0.966       .  S
O1369     Ni1377   1.923       .  S
O1369     Ni1371   1.923       .  S
O1369     Ni1376   1.903       .  S
O1370     Ni1371   1.940       .  S
Ni1371     O1375   1.945       .  S
Ni1371     O1373   1.911       .  S
O1372     Ni1377   1.935       .  S
C1374      O1375   1.272       .  A
O1379     Ni1385   1.904       .  S
O1379      C1400   1.265       .  A
O1380     Ni1403   1.902       .  S
O1380      C1389   1.267       .  A
O1381     Ni1385   1.884       .  S
O1381     Ni1403   1.886       .  S
O1381     Ni1397   1.916       .  S
O1381      H1404   0.967       .  S
C1382      O1399   1.275       .  A
C1382      O1391   1.274       .  A
O1383     Ni1402   1.930       .  S
O1383      C1389   1.271       .  A
O1384     Ni1402   1.899       .  S
O1384      C1386   1.270       .  A
Ni1385     O1388   1.915       .  S
Ni1385     O1390   1.897       .  S
C1386      O1396   1.276       .  A
O1387     Ni1403   1.936       .  S
O1387      C1393   1.284       .  A
O1388      C1393   1.278       .  A
C1389      C1441   1.458       .  S
O1390      C1392   1.265       .  A
O1391     Ni1402   1.924       .  S
C1392      O1398   1.269       .  A
C1392      C1646   1.472       .  S
H1394      O1395   0.966       .  S
O1395     Ni1403   1.923       .  S
O1395     Ni1397   1.923       .  S
O1395     Ni1402   1.903       .  S
O1396     Ni1397   1.940       .  S
Ni1397     O1401   1.945       .  S
Ni1397     O1399   1.911       .  S
O1398     Ni1403   1.935       .  S
C1400      O1401   1.272       .  A
O1405     Ni1411   1.893       .  S
O1405      C1426   1.260       .  A
O1406     Ni1429   1.901       .  S
O1406      C1415   1.267       .  A
O1407     Ni1411   1.882       .  S
O1407     Ni1429   1.881       .  S
O1407     Ni1423   1.919       .  S
O1407      H1430   0.967       .  S
C1408      O1425   1.276       .  A
C1408      O1417   1.274       .  A
C1408      C1445   1.468       .  S
O1409     Ni1428   1.931       .  S
O1409      C1415   1.272       .  A
O1410     Ni1428   1.900       .  S
O1410      C1412   1.271       .  A
Ni1411     O1414   1.908       .  S
Ni1411     O1416   1.892       .  S
C1412      O1422   1.276       .  A
O1413     Ni1429   1.940       .  S
O1413      C1419   1.287       .  A
O1414      C1419   1.278       .  A
O1416      C1418   1.263       .  A
O1417     Ni1428   1.922       .  S
C1418      O1424   1.269       .  A
C1418      C1568   1.469       .  S
C1419      C1434   1.468       .  S
H1420      O1421   0.966       .  S
O1421     Ni1429   1.926       .  S
O1421     Ni1423   1.926       .  S
O1421     Ni1428   1.903       .  S
O1422     Ni1423   1.939       .  S
Ni1423     O1427   1.954       .  S
Ni1423     O1425   1.913       .  S
O1424     Ni1429   1.934       .  S
C1426      O1427   1.273       .  A
O1431     Ni1437   1.893       .  S
O1431      C1452   1.260       .  A
O1432     Ni1455   1.901       .  S
O1432      C1441   1.267       .  A
O1433     Ni1437   1.882       .  S
O1433     Ni1455   1.881       .  S
O1433     Ni1449   1.919       .  S
O1433      H1456   0.967       .  S
C1434      O1443   1.274       .  A
O1435     Ni1454   1.931       .  S
O1435      C1441   1.272       .  A
O1436     Ni1454   1.900       .  S
O1436      C1438   1.271       .  A
Ni1437     O1440   1.908       .  S
Ni1437     O1442   1.892       .  S
C1438      O1448   1.276       .  A
O1439     Ni1455   1.940       .  S
O1439      C1445   1.287       .  A
O1440      C1445   1.278       .  A
O1442      C1444   1.263       .  A
C1444      O1450   1.269       .  A
C1444      C1594   1.469       .  S
H1446      O1447   0.966       .  S
O1447     Ni1455   1.926       .  S
O1447     Ni1449   1.925       .  S
O1447     Ni1454   1.903       .  S
O1448     Ni1449   1.939       .  S
Ni1449     O1453   1.954       .  S
Ni1449     O1451   1.913       .  S
O1450     Ni1455   1.934       .  S
C1452      O1453   1.273       .  A
O1457     Ni1463   1.931       .  S
O1457      C1478   1.272       .  A
O1458     Ni1481   1.953       .  S
O1458      C1467   1.273       .  A
O1459     Ni1463   1.901       .  S
O1459     Ni1481   1.924       .  S
O1459      H1482   0.966       .  S
C1460      O1477   1.287       .  A
C1460      O1469   1.278       .  A
C1460      C1497   1.469       .  S
O1461      C1467   1.260       .  A
O1462     Ni1480   1.892       .  S
O1462      C1464   1.263       .  A
Ni1463     O1466   1.923       .  S
Ni1463     O1468   1.900       .  S
C1464      O1474   1.268   1_556  A
O1465     Ni1481   1.913       .  S
O1465      C1471   1.277       .  A
O1466      C1471   1.274       .  A
O1468      C1470   1.271       .  A
O1469     Ni1480   1.909       .  S
C1470      O1476   1.276       .  A
C1470      C1626   1.470       .  S
C1471      C1486   1.469       .  S
H1472      O1473   0.966       .  S
O1473     Ni1475   1.881       .  S
O1473     Ni1480   1.882   1_554  S
O1474     Ni1475   1.934       .  S
Ni1475     O1479   1.900   1_554  S
Ni1475     O1477   1.942   1_554  S
O1476     Ni1481   1.939       .  S
C1478      C1556   1.457       .  S
O1483     Ni1489   1.931       .  S
O1483      C1504   1.272       .  A
O1484     Ni1507   1.953       .  S
O1484      C1493   1.273       .  A
O1485     Ni1489   1.901       .  S
O1485     Ni1507   1.924       .  S
O1485     Ni1501   1.925       .  S
O1485      H1508   0.966       .  S
C1486      O1503   1.287       .  A
C1486      O1495   1.278       .  A
O1487     Ni1506   1.894       .  S
O1487      C1493   1.260       .  A
O1488     Ni1506   1.892       .  S
O1488      C1490   1.263       .  A
Ni1489     O1492   1.923       .  S
Ni1489     O1494   1.900       .  S
C1490      O1500   1.268       .  A
O1491     Ni1507   1.913       .  S
O1491      C1497   1.277       .  A
O1492      C1497   1.274       .  A
O1494      C1496   1.271       .  A
O1495     Ni1506   1.909       .  S
C1496      O1502   1.276       .  A
C1496      C1652   1.470       .  S
H1498      O1499   0.966       .  S
O1499     Ni1507   1.919       .  S
O1499     Ni1501   1.881       .  S
O1499     Ni1506   1.882       .  S
O1500     Ni1501   1.934       .  S
Ni1501     O1505   1.900       .  S
Ni1501     O1503   1.941       .  S
O1502     Ni1507   1.939       .  S
C1504      O1505   1.267       .  A
C1504      C1530   1.457       .  S
O1509     Ni1515   1.929       .  S
O1509      C1530   1.271       .  A
O1510     Ni1533   1.947       .  S
O1510      C1519   1.272       .  A
O1511     Ni1515   1.903       .  S
O1511     Ni1533   1.923       .  S
O1511     Ni1527   1.924       .  S
O1511      H1534   0.966       .  S
C1512      O1529   1.285       .  A
C1512      O1521   1.278       .  A
C1512      C1549   1.468       .  S
O1513     Ni1532   1.902       .  S
O1513      C1519   1.264       .  A
O1514     Ni1532   1.896       .  S
O1514      C1516   1.264       .  A
Ni1515     O1518   1.922       .  S
Ni1515     O1520   1.899       .  S
C1516      O1526   1.270       .  A
O1517     Ni1533   1.912       .  S
O1517      C1523   1.275       .  A
O1518      C1523   1.274       .  A
O1520      C1522   1.270       .  A
O1521     Ni1532   1.913       .  S
C1522      O1528   1.276       .  A
C1522      C1574   1.470       .  S
C1523      C1538   1.468       .  S
H1524      O1525   0.967       .  S
O1525     Ni1533   1.917       .  S
O1525     Ni1527   1.884       .  S
O1525     Ni1532   1.883       .  S
O1526     Ni1527   1.936       .  S
Ni1527     O1531   1.902       .  S
Ni1527     O1529   1.935       .  S
O1528     Ni1533   1.940       .  S
C1530      O1531   1.267       .  A
O1535     Ni1541   1.929       .  S
O1536     Ni1559   1.947       .  S
O1536      C1545   1.272       .  A
O1537     Ni1541   1.903       .  S
O1537     Ni1559   1.923       .  S
O1537      H1560   0.966       .  S
C1538      O1555   1.285       .  A
C1538      O1547   1.278       .  A
O1539     Ni1558   1.902       .  S
O1540     Ni1558   1.896       .  S
O1540      C1542   1.264       .  A
Ni1541     O1544   1.922       .  S
Ni1541     O1546   1.899       .  S
C1542      O1552   1.270       .  A
O1543     Ni1559   1.912       .  S
O1543      C1549   1.275       .  A
O1544      C1549   1.274       .  A
O1546      C1548   1.270       .  A
O1547     Ni1558   1.913       .  S
C1548      O1554   1.276       .  A
C1548      C1600   1.470       .  S
H1550      O1551   0.967       .  S
O1551     Ni1553   1.884       .  S
O1551     Ni1558   1.883       .  S
O1552     Ni1553   1.936       .  S
Ni1553     O1557   1.902       .  S
Ni1553     O1555   1.935       .  S
O1554     Ni1559   1.940       .  S
C1556      O1557   1.267       .  A
O1561     Ni1567   1.932       .  S
O1561      C1582   1.272       .  A
O1562     Ni1585   1.953       .  S
O1562      C1571   1.273       .  A
O1563     Ni1567   1.901       .  S
O1563     Ni1585   1.924       .  S
O1563     Ni1579   1.924       .  S
O1563      H1586   0.966       .  S
C1564      O1581   1.287       .  A
C1564      O1573   1.278       .  A
C1564      C1601   1.469       .  S
O1565     Ni1584   1.894       .  S
O1565      C1571   1.260       .  A
O1566     Ni1584   1.893       .  S
O1566      C1568   1.263       .  A
Ni1567     O1570   1.924       .  S
Ni1567     O1572   1.900       .  S
C1568      O1578   1.268       .  A
O1569     Ni1585   1.913       .  S
O1569      C1575   1.277       .  A
O1570      C1575   1.274       .  A
O1572      C1574   1.271       .  A
O1573     Ni1584   1.909       .  S
C1574      O1580   1.276       .  A
C1575      C1590   1.469       .  S
H1576      O1577   0.967       .  S
O1577     Ni1585   1.919       .  S
O1577     Ni1579   1.882       .  S
O1577     Ni1584   1.883       .  S
O1578     Ni1579   1.933       .  S
Ni1579     O1583   1.900       .  S
Ni1579     O1581   1.941       .  S
O1580     Ni1585   1.939       .  S
C1582      O1583   1.267       .  A
C1582      C1634   1.458       .  S
O1587     Ni1593   1.932       .  S
O1587      C1608   1.272       .  A
O1588     Ni1611   1.953       .  S
O1588      C1597   1.273       .  A
O1589     Ni1593   1.901       .  S
O1589     Ni1611   1.924       .  S
O1589     Ni1605   1.924       .  S
O1589      H1612   0.966       .  S
C1590      O1607   1.287       .  A
C1590      O1599   1.278       .  A
O1591     Ni1610   1.894       .  S
O1591      C1597   1.260       .  A
O1592     Ni1610   1.893       .  S
O1592      C1594   1.263       .  A
Ni1593     O1596   1.924   1_556  S
Ni1593     O1598   1.900       .  S
C1594      O1604   1.268       .  A
O1595     Ni1611   1.913       .  S
O1598      C1600   1.271       .  A
O1599     Ni1610   1.909       .  S
C1600      O1606   1.276       .  A
H1602      O1603   0.967       .  S
O1603     Ni1611   1.919       .  S
O1603     Ni1605   1.882       .  S
O1603     Ni1610   1.883       .  S
O1604     Ni1605   1.933       .  S
Ni1605     O1609   1.900       .  S
Ni1605     O1607   1.941       .  S
O1606     Ni1611   1.939       .  S
C1608      O1609   1.267       .  A
C1608      C1660   1.458       .  S
O1613     Ni1619   1.929       .  S
O1613      C1634   1.271       .  A
O1614     Ni1637   1.946       .  S
O1614      C1623   1.272       .  A
O1615     Ni1619   1.905       .  S
O1615     Ni1637   1.925       .  S
O1615     Ni1631   1.925       .  S
O1615      H1638   0.966       .  S
C1616      O1633   1.284       .  A
C1616      O1625   1.278       .  A
C1616      C1653   1.469       .  S
O1617     Ni1636   1.903       .  S
O1617      C1623   1.265       .  A
O1618     Ni1636   1.896       .  S
O1618      C1620   1.264       .  A
Ni1619     O1622   1.923       .  S
Ni1619     O1624   1.899       .  S
C1620      O1630   1.270       .  A
O1621     Ni1637   1.911       .  S
O1621      C1627   1.275       .  A
O1622      C1627   1.274       .  A
O1624      C1626   1.270       .  A
O1625     Ni1636   1.914       .  S
C1626      O1632   1.276       .  A
H1628      O1629   0.966       .  S
O1629     Ni1637   1.916       .  S
O1629     Ni1631   1.885       .  S
O1629     Ni1636   1.883       .  S
O1630     Ni1631   1.936       .  S
Ni1631     O1635   1.902       .  S
Ni1631     O1633   1.935       .  S
O1632     Ni1637   1.939       .  S
C1634      O1635   1.267       .  A
O1639     Ni1645   1.929       .  S
O1639      C1660   1.271       .  A
O1640     Ni1663   1.946       .  S
O1640      C1649   1.272       .  A
O1641     Ni1645   1.905       .  S
O1641     Ni1663   1.925       .  S
O1641     Ni1657   1.925       .  S
O1641      H1664   0.966       .  S
C1642      O1659   1.284       .  A
C1642      O1651   1.278       .  A
O1643     Ni1662   1.903       .  S
O1643      C1649   1.265       .  A
O1644     Ni1662   1.896       .  S
O1644      C1646   1.264       .  A
Ni1645     O1648   1.923       .  S
Ni1645     O1650   1.899       .  S
C1646      O1656   1.270       .  A
O1647     Ni1663   1.911       .  S
O1647      C1653   1.275       .  A
O1648      C1653   1.274       .  A
O1650      C1652   1.270       .  A
O1651     Ni1662   1.914       .  S
C1652      O1658   1.276       .  A
H1654      O1655   0.966       .  S
O1655     Ni1663   1.916       .  S
O1655     Ni1657   1.885       .  S
O1655     Ni1662   1.883       .  S
O1656     Ni1657   1.936       .  S
Ni1657     O1661   1.902       .  S
Ni1657     O1659   1.935       .  S
O1658     Ni1663   1.939       .  S
C1660      O1661   1.267       .  A
