geometry optimzed in LAMMPS
_audit_creation_date              2020-11-30 
_audit_creation_method            'lammps2cif' 
_symmetry_space_group_name_H-M    'P1' 
_symmetry_Int_Tables_number       1 
_symmetry_cell_setting            triclinic 
loop_ 
_symmetry_equiv_pos_as_xyz 
  x,y,z 
_cell_length_a                    31.38360723466407 
_cell_length_b                    31.383569183245516 
_cell_length_c                    32.16086275965686 
_cell_angle_alpha                 89.95017256230341 
_cell_angle_beta                  89.97914018485763 
_cell_angle_gamma                 89.97606049003323 
loop_ 
_atom_site_label 
_atom_site_type_symbol 
_atom_site_fract_x 
_atom_site_fract_y 
_atom_site_fract_z 
_atom_site_charge 
N1          N  0.40804518  0.02018955  0.45291210    -0.06580
N2          N  0.38664015  0.03503459  0.42069625    -0.58700
N3          N  0.40772444  0.47813498  0.04912946    -0.06260
N4          N  0.38609648  0.46334897  0.08125105    -0.60830
N5          N  0.40738048  0.02003888  0.04900435    -0.05860
N6          N  0.38528697  0.03461879  0.08092866    -0.58670
N7          N  0.40761414  0.47828890  0.45304505    -0.05530
N8          N  0.38563744  0.46375496  0.42104370    -0.61180
C9          C  0.37282902  0.49952052  0.40107108     0.95600
C10         C  0.37224949  0.99890078  0.10084239     0.95380
N11         N  0.02013405  0.40726293  0.04914638    -0.06760
N12         N  0.03456302  0.38473703  0.08087535    -0.59280
N13         N  0.47837905  0.40746733  0.45307650    -0.04880
N14         N  0.46397262  0.38496546  0.42136613    -0.60530
N15         N  0.02026940  0.40763213  0.45325956    -0.06790
N16         N  0.03520050  0.38535522  0.42169238    -0.59540
N17         N  0.47823665  0.40741708  0.04896051    -0.04530
N18         N  0.46333061  0.38510824  0.08054543    -0.60620
Mn19       Mn  0.44186696  0.44175841  0.00104039     1.18440
C20         C  0.99874331  0.37104831  0.10023535     0.97680
C21         C  0.49980524  0.37131056  0.40200832     0.98340
N22         N  0.47805707  0.09091117  0.04925131    -0.06810
N23         N  0.46321622  0.11363568  0.08059943    -0.63120
N24         N  0.02038732  0.09123406  0.45384141    -0.05620
N25         N  0.03523176  0.11403924  0.42252411    -0.63800
N26         N  0.47849167  0.09087108  0.45336626    -0.06320
N27         N  0.46395885  0.11320971  0.42158874    -0.63390
N28         N  0.01995856  0.09051875  0.04972134    -0.05220
N29         N  0.03449280  0.11274892  0.08152442    -0.64080
Mn30       Mn  0.44187757  0.05655333  0.50111643     1.10660
C31         C  0.99875540  0.12713160  0.10044532     0.98900
C32         C  0.49969876  0.12763630  0.40269898     0.98980
N33         N  0.09059292  0.47843434  0.45325463    -0.06330
N34         N  0.11205571  0.46386469  0.42095571    -0.61700
N35         N  0.09063532  0.01985011  0.04964646    -0.05650
N36         N  0.11275119  0.03443701  0.08148900    -0.58430
N37         N  0.09109840  0.47795225  0.04923293    -0.06960
N38         N  0.11381558  0.46315375  0.08064100    -0.61270
N39         N  0.09102559  0.02033952  0.45366786    -0.05940
N40         N  0.11306926  0.03514770  0.42179987    -0.58450
Mn41       Mn  0.05661870  0.44175380  0.00124233     1.20190
Mn42       Mn  0.05658944  0.05653717  0.50177129     1.10090
Cl43       Cl  0.99924032  0.99914886  0.00131677    -0.86420
C44         C  0.12591818  0.49956323  0.40160810     0.95910
C45         C  0.12717578  0.99874587  0.10046616     0.95710
C46         C  0.49932072  0.27072473  0.25127448     0.00100
C47         C  0.49932124  0.22737458  0.25135028     0.00100
C48         C  0.27090064  0.50021926  0.25121202     0.00100
C49         C  0.22744099  0.50124921  0.25139717     0.00100
C50         C  0.20243244  0.50078537  0.21212531    -0.05920
C51         C  0.20464131  0.46560593  0.18532817    -0.33350
C52         C  0.18041270  0.46448189  0.14878259     0.35900
C53         C  0.15344556  0.49891561  0.13861014    -0.06280
C54         C  0.15150870  0.03414857  0.16540135    -0.33250
C55         C  0.17522577  0.03494522  0.20219439     0.35800
H56         H  0.22502768  0.43884909  0.19295125     0.16170
O57         O  0.18363253  0.42974437  0.12314026    -0.60750
H58         H  0.13101068  0.06094356  0.15817314     0.16190
O59         O  0.17269654  0.06989660  0.22764928    -0.60850
H60         H  0.14671714  0.06539338  0.24465833     0.43180
H61         H  0.20690224  0.43678872  0.10342722     0.43140
C62         C  0.15190415  0.49977485  0.36325048    -0.05920
C63         C  0.17803242  0.03494727  0.35436530    -0.33350
C64         C  0.20357249  0.03563043  0.31857843     0.35900
C65         C  0.20251759  0.50109354  0.29072124    -0.06280
C66         C  0.17561656  0.46646826  0.29903108    -0.33250
C67         C  0.15070532  0.46542763  0.33506110     0.35800
H68         H  0.17894648  0.06190762  0.37536223     0.16170
O69         O  0.22771315  0.07098430  0.30986003    -0.60750
H70         H  0.17413735  0.43996601  0.27749730     0.16190
O71         O  0.12479423  0.43097769  0.34197864    -0.60850
H72         H  0.09728666  0.43834949  0.32860274     0.43180
H73         H  0.24867374  0.07316412  0.33283409     0.43140
C74         C  0.29566241  0.50005611  0.21183819    -0.05920
C75         C  0.31992705  0.46402193  0.20181589    -0.33350
C76         C  0.34492363  0.46314494  0.16581664     0.35900
C77         C  0.34611504  0.49886876  0.13918247    -0.06280
C78         C  0.32225232  0.03520713  0.14966342    -0.33250
C79         C  0.29690945  0.03588074  0.18557102     0.35800
H80         H  0.31955312  0.43646454  0.22214423     0.16170
O81         O  0.36862579  0.42746223  0.15746864    -0.60750
H82         H  0.32303929  0.06316245  0.12989391     0.16190
O83         O  0.27493913  0.07220259  0.19579388    -0.60850
H84         H  0.25271160  0.07538603  0.17409931     0.43180
H85         H  0.39643220  0.43239509  0.17130038     0.43140
C86         C  0.34697269  0.49972295  0.36262999    -0.05920
C87         C  0.32136490  0.46438270  0.35297792    -0.33350
C88         C  0.29582111  0.46423617  0.31719412     0.35900
C89         C  0.29621411  0.49955757  0.29023140    -0.06280
C90         C  0.32274110  0.03426757  0.29916890    -0.33250
C91         C  0.34772330  0.03473769  0.33513738     0.35800
H92         H  0.32082329  0.43690447  0.37338529     0.16170
O93         O  0.27209891  0.42882234  0.30773718    -0.60750
H94         H  0.32379423  0.06132716  0.27823644     0.16190
O95         O  0.37322643  0.06934001  0.34269363    -0.60920
H96         H  0.40074667  0.06263076  0.32900829     0.43180
H97         H  0.25069790  0.42629444  0.33030455     0.43140
C98         C  0.49873543  0.15370393  0.13842121    -0.05920
C99         C  0.03463382  0.15363752  0.16449810    -0.33350
C100        C  0.03503488  0.17749648  0.20124704     0.35900
C101        C  0.49960350  0.20261925  0.21199135    -0.06280
C102        C  0.46388055  0.20310912  0.18582902    -0.33250
C103        C  0.46328300  0.17904063  0.14922477     0.35800
H104        H  0.06225508  0.13448197  0.15677613     0.16170
O105        O  0.07054010  0.17677464  0.22608982    -0.60750
H106        H  0.43617369  0.22187246  0.19408119     0.16190
O107        O  0.42793719  0.18071002  0.12422569    -0.60850
H108        H  0.43339104  0.20451449  0.10462973     0.43180
H109        H  0.06767494  0.15061839  0.24319267     0.43140
C110        C  0.49974339  0.15419002  0.36466813    -0.05920
C111        C  0.46374159  0.15437774  0.33874026    -0.33350
C112        C  0.46341683  0.17801134  0.30182385     0.35900
C113        C  0.49900467  0.20276613  0.29081975    -0.06280
C114        C  0.03479340  0.20313154  0.31689329    -0.33250
C115        C  0.03534267  0.17919715  0.35362073     0.35800
H116        H  0.43596561  0.13562503  0.34673458     0.16170
O117        O  0.42784066  0.17744428  0.27707586    -0.60750
H118        H  0.06258345  0.22168555  0.30847028     0.16190
O119        O  0.07078212  0.18067867  0.37849808    -0.60850
H120        H  0.06553860  0.20456478  0.39801864     0.43180
H121        H  0.43051591  0.15121664  0.26008914     0.43140
C122        C  0.49844414  0.34446361  0.13838965    -0.05920
C123        C  0.03707615  0.32889585  0.15455858    -0.33350
C124        C  0.03775374  0.30443134  0.19103835     0.35900
C125        C  0.49952568  0.29542436  0.21199024    -0.06280
C126        C  0.46097743  0.31065684  0.19594666    -0.33250
C127        C  0.46008434  0.33447190  0.15920782     0.35800
H128        H  0.06691708  0.33569027  0.13897513     0.16170
O129        O  0.07577678  0.28907355  0.20581196    -0.60750
H130        H  0.43132115  0.30360312  0.21171016     0.16190
O131        O  0.42151357  0.34827829  0.14442093    -0.60850
H132        H  0.41046691  0.32438807  0.12738327     0.43180
H133        H  0.09060953  0.31411372  0.21778288     0.43140
C134        C  0.50013466  0.34469333  0.36391597    -0.05920
C135        C  0.46152717  0.32902632  0.34783741    -0.33350
C136        C  0.46087143  0.30450281  0.31143571     0.35900
C137        C  0.49910102  0.29550529  0.29048104    -0.06280
C138        C  0.03762937  0.31082471  0.30644410    -0.33250
C139        C  0.03849843  0.33474711  0.34308212     0.35800
H140        H  0.43168566  0.33579230  0.36343020     0.16170
O141        O  0.42286580  0.28908125  0.29674060    -0.60750
H142        H  0.06728773  0.30378105  0.29068346     0.16190
O143        O  0.07704240  0.34873324  0.35773284    -0.60850
H144        H  0.08823399  0.32492338  0.37484118     0.43180
H145        H  0.40801153  0.31407290  0.28463219     0.43140
N146        N  0.40804518  0.02018955  0.95291210    -0.06580
N147        N  0.38664015  0.03503459  0.92069625    -0.58700
N148        N  0.40772444  0.47813498  0.54912946    -0.06260
N149        N  0.38609648  0.46334897  0.58125105    -0.60830
N150        N  0.40738048  0.02003888  0.54900435    -0.05860
N151        N  0.38528697  0.03461879  0.58092866    -0.58670
N152        N  0.40761414  0.47828890  0.95304505    -0.05530
N153        N  0.38563744  0.46375496  0.92104370    -0.61180
C154        C  0.37282902  0.49952052  0.90107108     0.95600
C155        C  0.37224948  0.99890078  0.60084239     0.95380
N156        N  0.02013405  0.40726293  0.54914638    -0.06760
N157        N  0.03456302  0.38473703  0.58087535    -0.59280
N158        N  0.47837905  0.40746733  0.95307650    -0.04880
N159        N  0.46397262  0.38496547  0.92136613    -0.60530
N160        N  0.02026940  0.40763213  0.95325956    -0.06790
N161        N  0.03520050  0.38535521  0.92169238    -0.59540
N162        N  0.47823665  0.40741708  0.54896051    -0.04530
N163        N  0.46333061  0.38510824  0.58054543    -0.60620
Mn164      Mn  0.44186696  0.44175841  0.50104039     1.18440
C165        C  0.99874331  0.37104831  0.60023535     0.97680
C166        C  0.49980524  0.37131056  0.90200832     0.98340
N167        N  0.47805707  0.09091117  0.54925131    -0.06810
N168        N  0.46321622  0.11363568  0.58059943    -0.63120
N169        N  0.02038732  0.09123406  0.95384141    -0.05620
N170        N  0.03523176  0.11403924  0.92252411    -0.63800
N171        N  0.47849167  0.09087108  0.95336626    -0.06320
N172        N  0.46395884  0.11320971  0.92158874    -0.63390
N173        N  0.01995856  0.09051875  0.54972134    -0.05220
N174        N  0.03449280  0.11274892  0.58152442    -0.64080
Mn175      Mn  0.44187757  0.05655333  0.00111643     1.10660
C176        C  0.99875540  0.12713160  0.60044532     0.98900
C177        C  0.49969876  0.12763630  0.90269898     0.98980
N178        N  0.09059292  0.47843434  0.95325463    -0.06330
N179        N  0.11205571  0.46386469  0.92095571    -0.61700
N180        N  0.09063533  0.01985011  0.54964646    -0.05650
N181        N  0.11275119  0.03443701  0.58148900    -0.58430
N182        N  0.09109840  0.47795225  0.54923293    -0.06960
N183        N  0.11381558  0.46315375  0.58064100    -0.61270
N184        N  0.09102559  0.02033952  0.95366786    -0.05940
N185        N  0.11306926  0.03514770  0.92179987    -0.58450
Mn186      Mn  0.05661870  0.44175380  0.50124233     1.20190
Mn187      Mn  0.05658944  0.05653717  0.00177129     1.10090
Cl188      Cl  0.99924032  0.99914886  0.50131677    -0.86420
C189        C  0.12591818  0.49956323  0.90160810     0.95910
C190        C  0.12717578  0.99874587  0.60046616     0.95710
C191        C  0.49932072  0.27072473  0.75127448     0.00100
C192        C  0.49932124  0.22737459  0.75135028     0.00100
C193        C  0.27090064  0.50021926  0.75121202     0.00100
C194        C  0.22744099  0.50124921  0.75139717     0.00100
C195        C  0.20243244  0.50078537  0.71212531    -0.05920
C196        C  0.20464131  0.46560593  0.68532817    -0.33350
C197        C  0.18041270  0.46448189  0.64878258     0.35900
C198        C  0.15344556  0.49891561  0.63861014    -0.06280
C199        C  0.15150870  0.03414857  0.66540135    -0.33250
C200        C  0.17522577  0.03494522  0.70219439     0.35800
H201        H  0.22502768  0.43884909  0.69295125     0.16170
O202        O  0.18363253  0.42974437  0.62314026    -0.60750
H203        H  0.13101068  0.06094356  0.65817314     0.16190
O204        O  0.17269654  0.06989660  0.72764928    -0.60850
H205        H  0.14671715  0.06539338  0.74465833     0.43180
H206        H  0.20690224  0.43678873  0.60342722     0.43140
C207        C  0.15190415  0.49977485  0.86325048    -0.05920
C208        C  0.17803242  0.03494727  0.85436530    -0.33350
C209        C  0.20357249  0.03563043  0.81857843     0.35900
C210        C  0.20251759  0.50109354  0.79072124    -0.06280
C211        C  0.17561656  0.46646827  0.79903108    -0.33250
C212        C  0.15070532  0.46542763  0.83506110     0.35800
H213        H  0.17894648  0.06190762  0.87536223     0.16170
O214        O  0.22771315  0.07098430  0.80986003    -0.60750
H215        H  0.17413735  0.43996601  0.77749730     0.16190
O216        O  0.12479423  0.43097769  0.84197864    -0.60850
H217        H  0.09728666  0.43834949  0.82860274     0.43180
H218        H  0.24867374  0.07316412  0.83283409     0.43140
C219        C  0.29566241  0.50005611  0.71183819    -0.05920
C220        C  0.31992705  0.46402193  0.70181589    -0.33350
C221        C  0.34492363  0.46314494  0.66581664     0.35900
C222        C  0.34611504  0.49886876  0.63918247    -0.06280
C223        C  0.32225232  0.03520713  0.64966342    -0.33250
C224        C  0.29690945  0.03588074  0.68557102     0.35800
H225        H  0.31955312  0.43646454  0.72214423     0.16170
O226        O  0.36862578  0.42746223  0.65746864    -0.60750
H227        H  0.32303929  0.06316245  0.62989391     0.16190
O228        O  0.27493913  0.07220259  0.69579388    -0.60850
H229        H  0.25271160  0.07538603  0.67409931     0.43180
H230        H  0.39643220  0.43239509  0.67130038     0.43140
C231        C  0.34697269  0.49972295  0.86262999    -0.05920
C232        C  0.32136490  0.46438270  0.85297792    -0.33350
C233        C  0.29582111  0.46423617  0.81719413     0.35900
C234        C  0.29621411  0.49955757  0.79023140    -0.06280
C235        C  0.32274110  0.03426757  0.79916890    -0.33250
C236        C  0.34772330  0.03473769  0.83513738     0.35800
H237        H  0.32082329  0.43690447  0.87338529     0.16170
O238        O  0.27209891  0.42882234  0.80773718    -0.60750
H239        H  0.32379423  0.06132716  0.77823644     0.16190
O240        O  0.37322643  0.06934001  0.84269363    -0.60920
H241        H  0.40074667  0.06263076  0.82900829     0.43180
H242        H  0.25069790  0.42629444  0.83030456     0.43140
C243        C  0.49873543  0.15370393  0.63842121    -0.05920
C244        C  0.03463383  0.15363753  0.66449809    -0.33350
C245        C  0.03503488  0.17749648  0.70124704     0.35900
C246        C  0.49960350  0.20261925  0.71199135    -0.06280
C247        C  0.46388055  0.20310912  0.68582902    -0.33250
C248        C  0.46328299  0.17904063  0.64922477     0.35800
H249        H  0.06225508  0.13448197  0.65677612     0.16170
O250        O  0.07054011  0.17677464  0.72608981    -0.60750
H251        H  0.43617369  0.22187245  0.69408120     0.16190
O252        O  0.42793719  0.18071002  0.62422569    -0.60850
H253        H  0.43339104  0.20451449  0.60462973     0.43180
H254        H  0.06767494  0.15061840  0.74319266     0.43140
C255        C  0.49974339  0.15419002  0.86466813    -0.05920
C256        C  0.46374159  0.15437775  0.83874026    -0.33350
C257        C  0.46341682  0.17801134  0.80182385     0.35900
C258        C  0.49900467  0.20276613  0.79081975    -0.06280
C259        C  0.03479340  0.20313153  0.81689329    -0.33250
C260        C  0.03534267  0.17919715  0.85362073     0.35800
H261        H  0.43596561  0.13562504  0.84673459     0.16170
O262        O  0.42784065  0.17744429  0.77707586    -0.60750
H263        H  0.06258346  0.22168555  0.80847028     0.16190
O264        O  0.07078213  0.18067867  0.87849808    -0.60850
H265        H  0.06553860  0.20456477  0.89801863     0.43180
H266        H  0.43051590  0.15121665  0.76008914     0.43140
C267        C  0.49844413  0.34446361  0.63838965    -0.05920
C268        C  0.03707615  0.32889586  0.65455859    -0.33350
C269        C  0.03775374  0.30443134  0.69103835     0.35900
C270        C  0.49952568  0.29542436  0.71199023    -0.06280
C271        C  0.46097743  0.31065683  0.69594665    -0.33250
C272        C  0.46008434  0.33447189  0.65920781     0.35800
H273        H  0.06691709  0.33569028  0.63897514     0.16170
O274        O  0.07577679  0.28907357  0.70581197    -0.60750
H275        H  0.43132115  0.30360311  0.71171014     0.16190
O276        O  0.42151357  0.34827827  0.64442092    -0.60850
H277        H  0.41046691  0.32438805  0.62738325     0.43180
H278        H  0.09060952  0.31411374  0.71778289     0.43140
C279        C  0.50013465  0.34469333  0.86391596    -0.05920
C280        C  0.46152716  0.32902633  0.84783741    -0.33350
C281        C  0.46087142  0.30450282  0.81143570     0.35900
C282        C  0.49910102  0.29550529  0.79048104    -0.06280
C283        C  0.03762938  0.31082470  0.80644410    -0.33250
C284        C  0.03849843  0.33474710  0.84308213     0.35800
H285        H  0.43168565  0.33579232  0.86343019     0.16170
O286        O  0.42286580  0.28908127  0.79674059    -0.60750
H287        H  0.06728773  0.30378103  0.79068347     0.16190
O288        O  0.07704240  0.34873322  0.85773285    -0.60850
H289        H  0.08823398  0.32492336  0.87484120     0.43180
H290        H  0.40801154  0.31407293  0.78463217     0.43140
N291        N  0.40804564  0.52018953  0.45291207    -0.06580
N292        N  0.38664062  0.53503457  0.42069622    -0.58700
N293        N  0.40772400  0.97813499  0.04912948    -0.06260
N294        N  0.38609604  0.96334899  0.08125108    -0.60830
N295        N  0.40738093  0.52003887  0.04900433    -0.05860
N296        N  0.38528741  0.53461878  0.08092863    -0.58670
N297        N  0.40761367  0.97828891  0.45304507    -0.05530
N298        N  0.38563697  0.96375498  0.42104373    -0.61180
C299        C  0.37282853  0.99952054  0.40107112     0.95600
C300        C  0.37224992  0.49890077  0.10084236     0.95380
N301        N  0.02013360  0.90726294  0.04914638    -0.06760
N302        N  0.03456260  0.88473705  0.08087535    -0.59280
N303        N  0.47837860  0.90746732  0.45307650    -0.04880
N304        N  0.46397218  0.88496545  0.42136613    -0.60530
N305        N  0.02026895  0.90763214  0.45325958    -0.06790
N306        N  0.03520006  0.88535522  0.42169240    -0.59540
N307        N  0.47823621  0.90741707  0.04896052    -0.04530
N308        N  0.46333019  0.88510823  0.08054545    -0.60620
Mn309      Mn  0.44186650  0.94175841  0.00104041     1.18440
C310        C  0.99874290  0.87104832  0.10023537     0.97680
C311        C  0.49980482  0.87131055  0.40200834     0.98340
N312        N  0.47805750  0.59091116  0.04925129    -0.06810
N313        N  0.46321662  0.61363566  0.08059939    -0.63120
N314        N  0.02038776  0.59123406  0.45384139    -0.05620
N315        N  0.03523218  0.61403925  0.42252408    -0.63800
N316        N  0.47849211  0.59087107  0.45336625    -0.06320
N317        N  0.46395926  0.61320968  0.42158873    -0.63390
N318        N  0.01995899  0.59051876  0.04972133    -0.05220
N319        N  0.03449320  0.61274895  0.08152442    -0.64080
Mn320      Mn  0.44187801  0.55655331  0.50111641     1.10660
C321        C  0.99875578  0.62713161  0.10044530     0.98900
C322        C  0.49969916  0.62763629  0.40269896     0.98980
N323        N  0.09059246  0.97843433  0.45325462    -0.06330
N324        N  0.11205524  0.96386469  0.42095570    -0.61700
N325        N  0.09063577  0.51985012  0.04964646    -0.05650
N326        N  0.11275164  0.53443701  0.08148901    -0.58430
N327        N  0.09109796  0.97795225  0.04923293    -0.06960
N328        N  0.11381514  0.96315375  0.08064100    -0.61270
N329        N  0.09102605  0.52033952  0.45366786    -0.05940
N330        N  0.11306973  0.53514770  0.42179987    -0.58450
Mn331      Mn  0.05661825  0.94175380  0.00124233     1.20190
Mn332      Mn  0.05658989  0.55653718  0.50177128     1.10090
Cl333      Cl  0.99924078  0.49914886  0.00131676    -0.86420
C334        C  0.12591770  0.99956323  0.40160808     0.95910
C335        C  0.12717623  0.49874588  0.10046617     0.95710
C336        C  0.49932055  0.77072473  0.25127449     0.00100
C337        C  0.49932133  0.72737459  0.25135027     0.00100
C338        C  0.27090018  0.00021928  0.25121204     0.00100
C339        C  0.22744053  0.00124922  0.25139717     0.00100
C340        C  0.20243199  0.00078538  0.21212531    -0.05920
C341        C  0.20464087  0.96560594  0.18532816    -0.33350
C342        C  0.18041226  0.96448190  0.14878258     0.35900
C343        C  0.15344512  0.99891560  0.13861014    -0.06280
C344        C  0.15150916  0.53414858  0.16540136    -0.33250
C345        C  0.17522623  0.53494522  0.20219439     0.35800
H346        H  0.22502724  0.93884911  0.19295125     0.16170
O347        O  0.18363210  0.92974438  0.12314025    -0.60750
H348        H  0.13101115  0.56094357  0.15817315     0.16190
O349        O  0.17269701  0.56989660  0.22764929    -0.60850
H350        H  0.14671763  0.56539338  0.24465835     0.43180
H351        H  0.20690181  0.93678874  0.10342722     0.43140
C352        C  0.15190367  0.99977485  0.36325047    -0.05920
C353        C  0.17803292  0.53494726  0.35436532    -0.33350
C354        C  0.20357298  0.53563041  0.31857845     0.35900
C355        C  0.20251712  0.00109355  0.29072123    -0.06280
C356        C  0.17561611  0.96646827  0.29903108    -0.33250
C357        C  0.15070485  0.96542763  0.33506109     0.35800
H358        H  0.17894699  0.56190760  0.37536225     0.16170
O359        O  0.22771365  0.57098427  0.30986005    -0.60750
H360        H  0.17413690  0.93996601  0.27749730     0.16190
O361        O  0.12479378  0.93097768  0.34197863    -0.60850
H362        H  0.09728621  0.93834948  0.32860272     0.43180
H363        H  0.24867425  0.57316407  0.33283410     0.43140
C364        C  0.29566196  0.00005613  0.21183822    -0.05920
C365        C  0.31992663  0.96402195  0.20181593    -0.33350
C366        C  0.34492321  0.96314496  0.16581668     0.35900
C367        C  0.34611461  0.99886878  0.13918250    -0.06280
C368        C  0.32225277  0.53520713  0.14966341    -0.33250
C369        C  0.29690991  0.53588073  0.18557101     0.35800
H370        H  0.31955271  0.93646457  0.22214428     0.16170
O371        O  0.36862539  0.92746226  0.15746870    -0.60750
H372        H  0.32303976  0.56316245  0.12989391     0.16190
O373        O  0.27493962  0.57220259  0.19579389    -0.60850
H374        H  0.25271207  0.57538605  0.17409934     0.43180
H375        H  0.39643181  0.93239515  0.17130044     0.43140
C376        C  0.34697220  0.99972298  0.36263003    -0.05920
C377        C  0.32136443  0.96438272  0.35297794    -0.33350
C378        C  0.29582065  0.96423619  0.31719414     0.35900
C379        C  0.29621364  0.99955759  0.29023142    -0.06280
C380        C  0.32274160  0.53426753  0.29916886    -0.33250
C381        C  0.34772381  0.53473764  0.33513732     0.35800
H382        H  0.32082284  0.93690448  0.37338530     0.16170
O383        O  0.27209848  0.92882234  0.30773718    -0.60750
H384        H  0.32379475  0.56132711  0.27823638     0.16190
O385        O  0.37322698  0.56933995  0.34269355    -0.60920
H386        H  0.40074721  0.56263066  0.32900822     0.43180
H387        H  0.25069745  0.92629444  0.33030454     0.43140
C388        C  0.49873576  0.65370396  0.13842118    -0.05920
C389        C  0.03463414  0.65363763  0.16449808    -0.33350
C390        C  0.03503512  0.67749658  0.20124703     0.35900
C391        C  0.49960368  0.70261927  0.21199133    -0.06280
C392        C  0.46388074  0.70310906  0.18582898    -0.33250
C393        C  0.46328326  0.67904058  0.14922473     0.35800
H394        H  0.06225544  0.63448214  0.15677612     0.16170
O395        O  0.07054034  0.67677482  0.22608982    -0.60750
H396        H  0.43617383  0.72187232  0.19408115     0.16190
O397        O  0.42793746  0.68070989  0.12422564    -0.60850
H398        H  0.43339127  0.70451438  0.10462968     0.43180
H399        H  0.06767525  0.65061855  0.24319264     0.43140
C400        C  0.49974374  0.65418999  0.36466810    -0.05920
C401        C  0.46374192  0.65437765  0.33874025    -0.33350
C402        C  0.46341708  0.67801125  0.30182385     0.35900
C403        C  0.49900486  0.70276612  0.29081973    -0.06280
C404        C  0.03479362  0.70313159  0.31689324    -0.33250
C405        C  0.03534296  0.67919719  0.35362067     0.35800
H406        H  0.43596598  0.63562489  0.34673460     0.16170
O407        O  0.42784089  0.67744413  0.27707589    -0.60750
H408        H  0.06258362  0.72168567  0.30847022     0.16190
O409        O  0.07078243  0.68067877  0.37849800    -0.60850
H410        H  0.06553888  0.70456486  0.39801857     0.43180
H411        H  0.43051619  0.65121651  0.26008914     0.43140
C412        C  0.49844377  0.84446363  0.13838966    -0.05920
C413        C  0.03707582  0.82889593  0.15455858    -0.33350
C414        C  0.03775347  0.80443142  0.19103835     0.35900
C415        C  0.49952543  0.79542438  0.21199025    -0.06280
C416        C  0.46097715  0.81065680  0.19594669    -0.33250
C417        C  0.46008400  0.83447186  0.15920785     0.35800
H418        H  0.06691674  0.83569040  0.13897512     0.16170
O419        O  0.07577655  0.78907371  0.20581195    -0.60750
H420        H  0.43132089  0.80360302  0.21171020     0.16190
O421        O  0.42151321  0.84827820  0.14442098    -0.60850
H422        H  0.41046658  0.82438797  0.12738331     0.43180
H423        H  0.09060922  0.81411390  0.21778291     0.43140
C424        C  0.50013428  0.84469332  0.36391598    -0.05920
C425        C  0.46152682  0.82902626  0.34783740    -0.33350
C426        C  0.46087114  0.80450275  0.31143570     0.35900
C427        C  0.49910077  0.79550528  0.29048105    -0.06280
C428        C  0.03762909  0.81082474  0.30644414    -0.33250
C429        C  0.03849808  0.83474714  0.34308216     0.35800
H430        H  0.43168529  0.83579220  0.36343017     0.16170
O431        O  0.42286555  0.78908112  0.29674057    -0.60750
H432        H  0.06728746  0.80378113  0.29068352     0.16190
O433        O  0.07704203  0.84873332  0.35773291    -0.60850
H434        H  0.08823364  0.82492346  0.37484125     0.43180
H435        H  0.40801123  0.81407276  0.28463220     0.43140
N436        N  0.40804564  0.52018953  0.95291207    -0.06580
N437        N  0.38664062  0.53503457  0.92069622    -0.58700
N438        N  0.40772400  0.97813499  0.54912948    -0.06260
N439        N  0.38609604  0.96334899  0.58125108    -0.60830
N440        N  0.40738093  0.52003887  0.54900433    -0.05860
N441        N  0.38528741  0.53461878  0.58092863    -0.58670
N442        N  0.40761367  0.97828891  0.95304507    -0.05530
N443        N  0.38563697  0.96375498  0.92104373    -0.61180
C444        C  0.37282853  0.99952054  0.90107112     0.95600
C445        C  0.37224992  0.49890077  0.60084236     0.95380
N446        N  0.02013361  0.90726294  0.54914638    -0.06760
N447        N  0.03456260  0.88473705  0.58087535    -0.59280
N448        N  0.47837860  0.90746732  0.95307650    -0.04880
N449        N  0.46397218  0.88496545  0.92136613    -0.60530
N450        N  0.02026895  0.90763214  0.95325958    -0.06790
N451        N  0.03520006  0.88535523  0.92169240    -0.59540
N452        N  0.47823621  0.90741707  0.54896052    -0.04530
N453        N  0.46333019  0.88510823  0.58054546    -0.60620
Mn454      Mn  0.44186650  0.94175841  0.50104041     1.18440
C455        C  0.99874290  0.87104832  0.60023537     0.97680
C456        C  0.49980482  0.87131055  0.90200834     0.98340
N457        N  0.47805750  0.59091116  0.54925129    -0.06810
N458        N  0.46321662  0.61363566  0.58059939    -0.63120
N459        N  0.02038776  0.59123406  0.95384139    -0.05620
N460        N  0.03523218  0.61403925  0.92252408    -0.63800
N461        N  0.47849211  0.59087107  0.95336625    -0.06320
N462        N  0.46395927  0.61320968  0.92158873    -0.63390
N463        N  0.01995899  0.59051876  0.54972133    -0.05220
N464        N  0.03449320  0.61274895  0.58152442    -0.64080
Mn465      Mn  0.44187801  0.55655331  0.00111641     1.10660
C466        C  0.99875578  0.62713161  0.60044530     0.98900
C467        C  0.49969916  0.62763629  0.90269896     0.98980
N468        N  0.09059246  0.97843433  0.95325462    -0.06330
N469        N  0.11205524  0.96386469  0.92095570    -0.61700
N470        N  0.09063577  0.51985012  0.54964646    -0.05650
N471        N  0.11275164  0.53443702  0.58148901    -0.58430
N472        N  0.09109796  0.97795225  0.54923293    -0.06960
N473        N  0.11381514  0.96315374  0.58064100    -0.61270
N474        N  0.09102605  0.52033952  0.95366786    -0.05940
N475        N  0.11306973  0.53514770  0.92179987    -0.58450
Mn476      Mn  0.05661825  0.94175380  0.50124233     1.20190
Mn477      Mn  0.05658989  0.55653718  0.00177129     1.10090
Cl478      Cl  0.99924078  0.49914886  0.50131676    -0.86420
C479        C  0.12591770  0.99956323  0.90160808     0.95910
C480        C  0.12717623  0.49874588  0.60046617     0.95710
C481        C  0.49932055  0.77072473  0.75127449     0.00100
C482        C  0.49932133  0.72737459  0.75135027     0.00100
C483        C  0.27090018  0.00021928  0.75121204     0.00100
C484        C  0.22744053  0.00124922  0.75139717     0.00100
C485        C  0.20243199  0.00078538  0.71212531    -0.05920
C486        C  0.20464087  0.96560594  0.68532816    -0.33350
C487        C  0.18041226  0.96448190  0.64878258     0.35900
C488        C  0.15344512  0.99891560  0.63861014    -0.06280
C489        C  0.15150916  0.53414858  0.66540136    -0.33250
C490        C  0.17522623  0.53494522  0.70219439     0.35800
H491        H  0.22502724  0.93884911  0.69295125     0.16170
O492        O  0.18363210  0.92974438  0.62314025    -0.60750
H493        H  0.13101115  0.56094357  0.65817315     0.16190
O494        O  0.17269701  0.56989660  0.72764929    -0.60850
H495        H  0.14671763  0.56539338  0.74465835     0.43180
H496        H  0.20690181  0.93678874  0.60342722     0.43140
C497        C  0.15190367  0.99977485  0.86325047    -0.05920
C498        C  0.17803292  0.53494726  0.85436532    -0.33350
C499        C  0.20357298  0.53563041  0.81857845     0.35900
C500        C  0.20251712  0.00109355  0.79072123    -0.06280
C501        C  0.17561610  0.96646827  0.79903108    -0.33250
C502        C  0.15070485  0.96542763  0.83506109     0.35800
H503        H  0.17894699  0.56190760  0.87536225     0.16170
O504        O  0.22771365  0.57098427  0.80986005    -0.60750
H505        H  0.17413690  0.93996601  0.77749730     0.16190
O506        O  0.12479377  0.93097769  0.84197863    -0.60850
H507        H  0.09728621  0.93834948  0.82860272     0.43180
H508        H  0.24867425  0.57316407  0.83283410     0.43140
C509        C  0.29566196  0.00005613  0.71183822    -0.05920
C510        C  0.31992663  0.96402196  0.70181593    -0.33350
C511        C  0.34492321  0.96314496  0.66581668     0.35900
C512        C  0.34611461  0.99886878  0.63918250    -0.06280
C513        C  0.32225277  0.53520713  0.64966341    -0.33250
C514        C  0.29690991  0.53588074  0.68557101     0.35800
H515        H  0.31955271  0.93646457  0.72214429     0.16170
O516        O  0.36862539  0.92746227  0.65746870    -0.60750
H517        H  0.32303976  0.56316245  0.62989391     0.16190
O518        O  0.27493962  0.57220259  0.69579389    -0.60850
H519        H  0.25271208  0.57538605  0.67409934     0.43180
H520        H  0.39643181  0.93239515  0.67130044     0.43140
C521        C  0.34697220  0.99972298  0.86263003    -0.05920
C522        C  0.32136443  0.96438272  0.85297794    -0.33350
C523        C  0.29582065  0.96423619  0.81719414     0.35900
C524        C  0.29621364  0.99955759  0.79023142    -0.06280
C525        C  0.32274160  0.53426753  0.79916886    -0.33250
C526        C  0.34772381  0.53473764  0.83513732     0.35800
H527        H  0.32082284  0.93690448  0.87338530     0.16170
O528        O  0.27209848  0.92882234  0.80773718    -0.60750
H529        H  0.32379475  0.56132711  0.77823638     0.16190
O530        O  0.37322698  0.56933995  0.84269355    -0.60920
H531        H  0.40074721  0.56263066  0.82900822     0.43180
H532        H  0.25069745  0.92629444  0.83030454     0.43140
C533        C  0.49873576  0.65370396  0.63842118    -0.05920
C534        C  0.03463414  0.65363763  0.66449808    -0.33350
C535        C  0.03503512  0.67749657  0.70124703     0.35900
C536        C  0.49960368  0.70261927  0.71199133    -0.06280
C537        C  0.46388074  0.70310906  0.68582898    -0.33250
C538        C  0.46328327  0.67904058  0.64922473     0.35800
H539        H  0.06225544  0.63448213  0.65677612     0.16170
O540        O  0.07054034  0.67677481  0.72608982    -0.60750
H541        H  0.43617384  0.72187233  0.69408115     0.16190
O542        O  0.42793747  0.68070990  0.62422563    -0.60850
H543        H  0.43339128  0.70451439  0.60462968     0.43180
H544        H  0.06767524  0.65061854  0.74319265     0.43140
C545        C  0.49974374  0.65418999  0.86466810    -0.05920
C546        C  0.46374192  0.65437765  0.83874025    -0.33350
C547        C  0.46341708  0.67801124  0.80182385     0.35900
C548        C  0.49900486  0.70276611  0.79081973    -0.06280
C549        C  0.03479362  0.70313159  0.81689325    -0.33250
C550        C  0.03534296  0.67919719  0.85362068     0.35800
H551        H  0.43596599  0.63562488  0.84673459     0.16170
O552        O  0.42784090  0.67744412  0.77707588    -0.60750
H553        H  0.06258362  0.72168568  0.80847022     0.16190
O554        O  0.07078243  0.68067878  0.87849801    -0.60850
H555        H  0.06553887  0.70456487  0.89801857     0.43180
H556        H  0.43051620  0.65121650  0.76008914     0.43140
C557        C  0.49844377  0.84446363  0.63838966    -0.05920
C558        C  0.03707582  0.82889593  0.65455858    -0.33350
C559        C  0.03775347  0.80443141  0.69103834     0.35900
C560        C  0.49952544  0.79542438  0.71199025    -0.06280
C561        C  0.46097715  0.81065681  0.69594670    -0.33250
C562        C  0.46008400  0.83447187  0.65920786     0.35800
H563        H  0.06691674  0.83569038  0.63897511     0.16170
O564        O  0.07577655  0.78907369  0.70581194    -0.60750
H565        H  0.43132090  0.80360304  0.71171021     0.16190
O566        O  0.42151321  0.84827822  0.64442100    -0.60850
H567        H  0.41046657  0.82438799  0.62738333     0.43180
H568        H  0.09060923  0.81411388  0.71778290     0.43140
C569        C  0.50013428  0.84469332  0.86391598    -0.05920
C570        C  0.46152682  0.82902625  0.84783741    -0.33350
C571        C  0.46087115  0.80450273  0.81143571     0.35900
C572        C  0.49910077  0.79550528  0.79048105    -0.06280
C573        C  0.03762909  0.81082475  0.80644414    -0.33250
C574        C  0.03849808  0.83474715  0.84308216     0.35800
H575        H  0.43168530  0.83579218  0.86343018     0.16170
O576        O  0.42286556  0.78908109  0.79674058    -0.60750
H577        H  0.06728746  0.80378115  0.79068351     0.16190
O578        O  0.07704202  0.84873333  0.85773290    -0.60850
H579        H  0.08823365  0.82492348  0.87484124     0.43180
H580        H  0.40801122  0.81407273  0.78463221     0.43140
N581        N  0.90804518  0.02018955  0.45291210    -0.06580
N582        N  0.88664015  0.03503459  0.42069625    -0.58700
N583        N  0.90772444  0.47813498  0.04912946    -0.06260
N584        N  0.88609648  0.46334897  0.08125105    -0.60830
N585        N  0.90738048  0.02003888  0.04900435    -0.05860
N586        N  0.88528697  0.03461879  0.08092866    -0.58670
N587        N  0.90761414  0.47828890  0.45304505    -0.05530
N588        N  0.88563744  0.46375496  0.42104370    -0.61180
C589        C  0.87282902  0.49952052  0.40107108     0.95600
C590        C  0.87224948  0.99890078  0.10084239     0.95380
N591        N  0.52013405  0.40726293  0.04914638    -0.06760
N592        N  0.53456302  0.38473703  0.08087535    -0.59280
N593        N  0.97837905  0.40746733  0.45307650    -0.04880
N594        N  0.96397262  0.38496546  0.42136613    -0.60530
N595        N  0.52026940  0.40763213  0.45325956    -0.06790
N596        N  0.53520050  0.38535521  0.42169238    -0.59540
N597        N  0.97823665  0.40741708  0.04896051    -0.04530
N598        N  0.96333061  0.38510824  0.08054543    -0.60620
Mn599      Mn  0.94186696  0.44175841  0.00104039     1.18440
C600        C  0.49874331  0.37104831  0.10023535     0.97680
C601        C  0.99980524  0.37131056  0.40200832     0.98340
N602        N  0.97805707  0.09091117  0.04925131    -0.06810
N603        N  0.96321622  0.11363568  0.08059943    -0.63120
N604        N  0.52038732  0.09123406  0.45384141    -0.05620
N605        N  0.53523176  0.11403924  0.42252411    -0.63800
N606        N  0.97849167  0.09087108  0.45336626    -0.06320
N607        N  0.96395885  0.11320971  0.42158874    -0.63390
N608        N  0.51995856  0.09051875  0.04972134    -0.05220
N609        N  0.53449280  0.11274892  0.08152442    -0.64080
Mn610      Mn  0.94187757  0.05655333  0.50111643     1.10660
C611        C  0.49875540  0.12713160  0.10044532     0.98900
C612        C  0.99969876  0.12763630  0.40269898     0.98980
N613        N  0.59059292  0.47843434  0.45325463    -0.06330
N614        N  0.61205571  0.46386469  0.42095571    -0.61700
N615        N  0.59063532  0.01985011  0.04964646    -0.05650
N616        N  0.61275119  0.03443701  0.08148900    -0.58430
N617        N  0.59109840  0.47795225  0.04923293    -0.06960
N618        N  0.61381558  0.46315375  0.08064100    -0.61270
N619        N  0.59102559  0.02033952  0.45366786    -0.05940
N620        N  0.61306926  0.03514770  0.42179987    -0.58450
Mn621      Mn  0.55661870  0.44175380  0.00124233     1.20190
Mn622      Mn  0.55658944  0.05653717  0.50177129     1.10090
Cl623      Cl  0.49924032  0.99914886  0.00131677    -0.86420
C624        C  0.62591818  0.49956323  0.40160810     0.95910
C625        C  0.62717578  0.99874587  0.10046616     0.95710
C626        C  0.99932072  0.27072473  0.25127448     0.00100
C627        C  0.99932124  0.22737459  0.25135028     0.00100
C628        C  0.77090064  0.50021926  0.25121202     0.00100
C629        C  0.72744099  0.50124921  0.25139717     0.00100
C630        C  0.70243244  0.50078537  0.21212531    -0.05920
C631        C  0.70464131  0.46560593  0.18532817    -0.33350
C632        C  0.68041270  0.46448189  0.14878258     0.35900
C633        C  0.65344556  0.49891561  0.13861014    -0.06280
C634        C  0.65150870  0.03414857  0.16540135    -0.33250
C635        C  0.67522577  0.03494522  0.20219439     0.35800
H636        H  0.72502768  0.43884909  0.19295125     0.16170
O637        O  0.68363253  0.42974437  0.12314026    -0.60750
H638        H  0.63101068  0.06094356  0.15817314     0.16190
O639        O  0.67269654  0.06989659  0.22764928    -0.60850
H640        H  0.64671714  0.06539338  0.24465833     0.43180
H641        H  0.70690224  0.43678872  0.10342722     0.43140
C642        C  0.65190415  0.49977484  0.36325048    -0.05920
C643        C  0.67803242  0.03494727  0.35436530    -0.33350
C644        C  0.70357249  0.03563043  0.31857843     0.35900
C645        C  0.70251759  0.50109354  0.29072124    -0.06280
C646        C  0.67561656  0.46646826  0.29903108    -0.33250
C647        C  0.65070532  0.46542763  0.33506110     0.35800
H648        H  0.67894648  0.06190762  0.37536223     0.16170
O649        O  0.72771315  0.07098430  0.30986003    -0.60750
H650        H  0.67413735  0.43996601  0.27749730     0.16190
O651        O  0.62479423  0.43097769  0.34197864    -0.60850
H652        H  0.59728666  0.43834949  0.32860274     0.43180
H653        H  0.74867374  0.07316412  0.33283409     0.43140
C654        C  0.79566241  0.50005611  0.21183819    -0.05920
C655        C  0.81992705  0.46402193  0.20181589    -0.33350
C656        C  0.84492363  0.46314494  0.16581664     0.35900
C657        C  0.84611504  0.49886876  0.13918247    -0.06280
C658        C  0.82225232  0.03520713  0.14966342    -0.33250
C659        C  0.79690945  0.03588074  0.18557102     0.35800
H660        H  0.81955312  0.43646454  0.22214423     0.16170
O661        O  0.86862579  0.42746223  0.15746864    -0.60750
H662        H  0.82303929  0.06316245  0.12989391     0.16190
O663        O  0.77493913  0.07220259  0.19579388    -0.60850
H664        H  0.75271160  0.07538603  0.17409931     0.43180
H665        H  0.89643220  0.43239509  0.17130038     0.43140
C666        C  0.84697269  0.49972295  0.36262999    -0.05920
C667        C  0.82136490  0.46438270  0.35297792    -0.33350
C668        C  0.79582111  0.46423617  0.31719412     0.35900
C669        C  0.79621411  0.49955757  0.29023140    -0.06280
C670        C  0.82274110  0.03426757  0.29916890    -0.33250
C671        C  0.84772330  0.03473769  0.33513738     0.35800
H672        H  0.82082329  0.43690447  0.37338529     0.16170
O673        O  0.77209891  0.42882234  0.30773718    -0.60750
H674        H  0.82379423  0.06132716  0.27823644     0.16190
O675        O  0.87322643  0.06934001  0.34269363    -0.60920
H676        H  0.90074667  0.06263076  0.32900829     0.43180
H677        H  0.75069790  0.42629444  0.33030455     0.43140
C678        C  0.99873543  0.15370393  0.13842121    -0.05920
C679        C  0.53463383  0.15363752  0.16449810    -0.33350
C680        C  0.53503488  0.17749648  0.20124704     0.35900
C681        C  0.99960350  0.20261925  0.21199135    -0.06280
C682        C  0.96388055  0.20310912  0.18582902    -0.33250
C683        C  0.96328300  0.17904063  0.14922477     0.35800
H684        H  0.56225508  0.13448197  0.15677613     0.16170
O685        O  0.57054010  0.17677464  0.22608982    -0.60750
H686        H  0.93617369  0.22187246  0.19408119     0.16190
O687        O  0.92793719  0.18071002  0.12422569    -0.60850
H688        H  0.93339104  0.20451449  0.10462973     0.43180
H689        H  0.56767494  0.15061839  0.24319267     0.43140
C690        C  0.99974339  0.15419002  0.36466813    -0.05920
C691        C  0.96374159  0.15437774  0.33874026    -0.33350
C692        C  0.96341682  0.17801134  0.30182385     0.35900
C693        C  0.99900467  0.20276613  0.29081975    -0.06280
C694        C  0.53479340  0.20313154  0.31689329    -0.33250
C695        C  0.53534267  0.17919715  0.35362073     0.35800
H696        H  0.93596561  0.13562503  0.34673458     0.16170
O697        O  0.92784066  0.17744428  0.27707586    -0.60750
H698        H  0.56258345  0.22168555  0.30847028     0.16190
O699        O  0.57078212  0.18067867  0.37849808    -0.60850
H700        H  0.56553860  0.20456478  0.39801864     0.43180
H701        H  0.93051590  0.15121664  0.26008914     0.43140
C702        C  0.99844414  0.34446361  0.13838965    -0.05920
C703        C  0.53707615  0.32889585  0.15455858    -0.33350
C704        C  0.53775374  0.30443134  0.19103835     0.35900
C705        C  0.99952568  0.29542436  0.21199024    -0.06280
C706        C  0.96097743  0.31065684  0.19594666    -0.33250
C707        C  0.96008434  0.33447190  0.15920782     0.35800
H708        H  0.56691709  0.33569027  0.13897513     0.16170
O709        O  0.57577678  0.28907355  0.20581196    -0.60750
H710        H  0.93132115  0.30360312  0.21171016     0.16190
O711        O  0.92151357  0.34827829  0.14442093    -0.60850
H712        H  0.91046690  0.32438807  0.12738327     0.43180
H713        H  0.59060953  0.31411372  0.21778288     0.43140
C714        C  0.00013466  0.34469333  0.36391597    -0.05920
C715        C  0.96152717  0.32902632  0.34783741    -0.33350
C716        C  0.96087143  0.30450281  0.31143571     0.35900
C717        C  0.99910102  0.29550529  0.29048104    -0.06280
C718        C  0.53762938  0.31082471  0.30644410    -0.33250
C719        C  0.53849843  0.33474711  0.34308212     0.35800
H720        H  0.93168566  0.33579230  0.36343020     0.16170
O721        O  0.92286580  0.28908125  0.29674060    -0.60750
H722        H  0.56728773  0.30378105  0.29068346     0.16190
O723        O  0.57704240  0.34873324  0.35773284    -0.60850
H724        H  0.58823399  0.32492338  0.37484118     0.43180
H725        H  0.90801153  0.31407290  0.28463219     0.43140
N726        N  0.90804518  0.02018955  0.95291210    -0.06580
N727        N  0.88664015  0.03503459  0.92069625    -0.58700
N728        N  0.90772444  0.47813498  0.54912946    -0.06260
N729        N  0.88609648  0.46334897  0.58125105    -0.60830
N730        N  0.90738048  0.02003888  0.54900435    -0.05860
N731        N  0.88528697  0.03461879  0.58092866    -0.58670
N732        N  0.90761414  0.47828890  0.95304505    -0.05530
N733        N  0.88563744  0.46375496  0.92104370    -0.61180
C734        C  0.87282902  0.49952052  0.90107108     0.95600
C735        C  0.87224949  0.99890078  0.60084239     0.95380
N736        N  0.52013405  0.40726293  0.54914638    -0.06760
N737        N  0.53456302  0.38473703  0.58087535    -0.59280
N738        N  0.97837905  0.40746733  0.95307650    -0.04880
N739        N  0.96397262  0.38496547  0.92136613    -0.60530
N740        N  0.52026940  0.40763213  0.95325956    -0.06790
N741        N  0.53520050  0.38535521  0.92169238    -0.59540
N742        N  0.97823665  0.40741708  0.54896051    -0.04530
N743        N  0.96333061  0.38510824  0.58054543    -0.60620
Mn744      Mn  0.94186696  0.44175841  0.50104039     1.18440
C745        C  0.49874331  0.37104831  0.60023535     0.97680
C746        C  0.99980524  0.37131056  0.90200832     0.98340
N747        N  0.97805707  0.09091117  0.54925131    -0.06810
N748        N  0.96321622  0.11363568  0.58059943    -0.63120
N749        N  0.52038732  0.09123406  0.95384141    -0.05620
N750        N  0.53523176  0.11403924  0.92252411    -0.63800
N751        N  0.97849167  0.09087108  0.95336626    -0.06320
N752        N  0.96395884  0.11320971  0.92158874    -0.63390
N753        N  0.51995856  0.09051875  0.54972134    -0.05220
N754        N  0.53449280  0.11274892  0.58152442    -0.64080
Mn755      Mn  0.94187757  0.05655333  0.00111643     1.10660
C756        C  0.49875540  0.12713160  0.60044532     0.98900
C757        C  0.99969876  0.12763630  0.90269898     0.98980
N758        N  0.59059292  0.47843434  0.95325463    -0.06330
N759        N  0.61205571  0.46386469  0.92095571    -0.61700
N760        N  0.59063532  0.01985011  0.54964646    -0.05650
N761        N  0.61275119  0.03443701  0.58148900    -0.58430
N762        N  0.59109840  0.47795225  0.54923293    -0.06960
N763        N  0.61381558  0.46315375  0.58064100    -0.61270
N764        N  0.59102559  0.02033952  0.95366786    -0.05940
N765        N  0.61306926  0.03514770  0.92179987    -0.58450
Mn766      Mn  0.55661870  0.44175380  0.50124233     1.20190
Mn767      Mn  0.55658944  0.05653717  0.00177129     1.10090
Cl768      Cl  0.49924032  0.99914886  0.50131677    -0.86420
C769        C  0.62591818  0.49956323  0.90160810     0.95910
C770        C  0.62717578  0.99874587  0.60046616     0.95710
C771        C  0.99932072  0.27072473  0.75127448     0.00100
C772        C  0.99932124  0.22737459  0.75135028     0.00100
C773        C  0.77090064  0.50021926  0.75121202     0.00100
C774        C  0.72744099  0.50124921  0.75139717     0.00100
C775        C  0.70243244  0.50078537  0.71212531    -0.05920
C776        C  0.70464131  0.46560593  0.68532817    -0.33350
C777        C  0.68041270  0.46448189  0.64878258     0.35900
C778        C  0.65344556  0.49891561  0.63861014    -0.06280
C779        C  0.65150870  0.03414857  0.66540135    -0.33250
C780        C  0.67522577  0.03494522  0.70219439     0.35800
H781        H  0.72502768  0.43884909  0.69295125     0.16170
O782        O  0.68363253  0.42974437  0.62314026    -0.60750
H783        H  0.63101068  0.06094356  0.65817314     0.16190
O784        O  0.67269654  0.06989660  0.72764928    -0.60850
H785        H  0.64671715  0.06539338  0.74465833     0.43180
H786        H  0.70690224  0.43678873  0.60342722     0.43140
C787        C  0.65190415  0.49977484  0.86325048    -0.05920
C788        C  0.67803242  0.03494727  0.85436530    -0.33350
C789        C  0.70357249  0.03563043  0.81857843     0.35900
C790        C  0.70251759  0.50109354  0.79072124    -0.06280
C791        C  0.67561656  0.46646826  0.79903108    -0.33250
C792        C  0.65070532  0.46542763  0.83506110     0.35800
H793        H  0.67894648  0.06190762  0.87536223     0.16170
O794        O  0.72771315  0.07098430  0.80986003    -0.60750
H795        H  0.67413735  0.43996601  0.77749730     0.16190
O796        O  0.62479423  0.43097769  0.84197864    -0.60850
H797        H  0.59728666  0.43834949  0.82860274     0.43180
H798        H  0.74867374  0.07316412  0.83283409     0.43140
C799        C  0.79566241  0.50005611  0.71183819    -0.05920
C800        C  0.81992705  0.46402193  0.70181589    -0.33350
C801        C  0.84492363  0.46314494  0.66581664     0.35900
C802        C  0.84611504  0.49886876  0.63918247    -0.06280
C803        C  0.82225232  0.03520713  0.64966342    -0.33250
C804        C  0.79690945  0.03588074  0.68557102     0.35800
H805        H  0.81955312  0.43646454  0.72214423     0.16170
O806        O  0.86862578  0.42746223  0.65746864    -0.60750
H807        H  0.82303929  0.06316245  0.62989391     0.16190
O808        O  0.77493913  0.07220259  0.69579388    -0.60850
H809        H  0.75271160  0.07538603  0.67409931     0.43180
H810        H  0.89643220  0.43239509  0.67130038     0.43140
C811        C  0.84697269  0.49972295  0.86262999    -0.05920
C812        C  0.82136490  0.46438270  0.85297792    -0.33350
C813        C  0.79582111  0.46423617  0.81719412     0.35900
C814        C  0.79621411  0.49955757  0.79023140    -0.06280
C815        C  0.82274110  0.03426757  0.79916890    -0.33250
C816        C  0.84772330  0.03473769  0.83513738     0.35800
H817        H  0.82082329  0.43690447  0.87338529     0.16170
O818        O  0.77209891  0.42882234  0.80773718    -0.60750
H819        H  0.82379423  0.06132716  0.77823644     0.16190
O820        O  0.87322643  0.06934001  0.84269363    -0.60920
H821        H  0.90074667  0.06263076  0.82900829     0.43180
H822        H  0.75069790  0.42629444  0.83030456     0.43140
C823        C  0.99873543  0.15370393  0.63842121    -0.05920
C824        C  0.53463383  0.15363753  0.66449809    -0.33350
C825        C  0.53503488  0.17749648  0.70124704     0.35900
C826        C  0.99960350  0.20261925  0.71199135    -0.06280
C827        C  0.96388055  0.20310912  0.68582902    -0.33250
C828        C  0.96328299  0.17904063  0.64922477     0.35800
H829        H  0.56225508  0.13448197  0.65677612     0.16170
O830        O  0.57054011  0.17677465  0.72608981    -0.60750
H831        H  0.93617369  0.22187245  0.69408120     0.16190
O832        O  0.92793719  0.18071002  0.62422569    -0.60850
H833        H  0.93339104  0.20451449  0.60462973     0.43180
H834        H  0.56767494  0.15061840  0.74319266     0.43140
C835        C  0.99974339  0.15419002  0.86466813    -0.05920
C836        C  0.96374159  0.15437775  0.83874026    -0.33350
C837        C  0.96341682  0.17801134  0.80182385     0.35900
C838        C  0.99900467  0.20276613  0.79081975    -0.06280
C839        C  0.53479340  0.20313153  0.81689329    -0.33250
C840        C  0.53534267  0.17919715  0.85362073     0.35800
H841        H  0.93596561  0.13562504  0.84673459     0.16170
O842        O  0.92784066  0.17744429  0.77707586    -0.60750
H843        H  0.56258346  0.22168555  0.80847027     0.16190
O844        O  0.57078213  0.18067867  0.87849808    -0.60850
H845        H  0.56553860  0.20456477  0.89801863     0.43180
H846        H  0.93051590  0.15121665  0.76008914     0.43140
C847        C  0.99844414  0.34446361  0.63838965    -0.05920
C848        C  0.53707615  0.32889586  0.65455859    -0.33350
C849        C  0.53775374  0.30443135  0.69103835     0.35900
C850        C  0.99952568  0.29542436  0.71199023    -0.06280
C851        C  0.96097743  0.31065683  0.69594665    -0.33250
C852        C  0.96008434  0.33447189  0.65920781     0.35800
H853        H  0.56691709  0.33569028  0.63897514     0.16170
O854        O  0.57577679  0.28907357  0.70581197    -0.60750
H855        H  0.93132115  0.30360311  0.71171015     0.16190
O856        O  0.92151357  0.34827828  0.64442092    -0.60850
H857        H  0.91046691  0.32438805  0.62738325     0.43180
H858        H  0.59060952  0.31411374  0.71778289     0.43140
C859        C  0.00013465  0.34469333  0.86391596    -0.05920
C860        C  0.96152716  0.32902633  0.84783741    -0.33350
C861        C  0.96087142  0.30450282  0.81143570     0.35900
C862        C  0.99910102  0.29550529  0.79048104    -0.06280
C863        C  0.53762937  0.31082470  0.80644410    -0.33250
C864        C  0.53849843  0.33474710  0.84308213     0.35800
H865        H  0.93168565  0.33579232  0.86343019     0.16170
O866        O  0.92286580  0.28908127  0.79674059    -0.60750
H867        H  0.56728773  0.30378103  0.79068347     0.16190
O868        O  0.57704240  0.34873322  0.85773285    -0.60850
H869        H  0.58823398  0.32492335  0.87484120     0.43180
H870        H  0.90801154  0.31407293  0.78463217     0.43140
N871        N  0.90804564  0.52018953  0.45291207    -0.06580
N872        N  0.88664062  0.53503457  0.42069622    -0.58700
N873        N  0.90772400  0.97813499  0.04912948    -0.06260
N874        N  0.88609603  0.96334899  0.08125108    -0.60830
N875        N  0.90738093  0.52003887  0.04900433    -0.05860
N876        N  0.88528741  0.53461878  0.08092863    -0.58670
N877        N  0.90761367  0.97828891  0.45304507    -0.05530
N878        N  0.88563697  0.96375498  0.42104373    -0.61180
C879        C  0.87282853  0.99952054  0.40107112     0.95600
C880        C  0.87224992  0.49890077  0.10084236     0.95380
N881        N  0.52013361  0.90726294  0.04914638    -0.06760
N882        N  0.53456260  0.88473705  0.08087535    -0.59280
N883        N  0.97837860  0.90746732  0.45307650    -0.04880
N884        N  0.96397218  0.88496545  0.42136613    -0.60530
N885        N  0.52026895  0.90763214  0.45325958    -0.06790
N886        N  0.53520006  0.88535522  0.42169240    -0.59540
N887        N  0.97823621  0.90741707  0.04896052    -0.04530
N888        N  0.96333019  0.88510823  0.08054545    -0.60620
Mn889      Mn  0.94186650  0.94175841  0.00104041     1.18440
C890        C  0.49874290  0.87104832  0.10023537     0.97680
C891        C  0.99980482  0.87131055  0.40200834     0.98340
N892        N  0.97805750  0.59091116  0.04925129    -0.06810
N893        N  0.96321662  0.61363566  0.08059939    -0.63120
N894        N  0.52038776  0.59123406  0.45384139    -0.05620
N895        N  0.53523218  0.61403925  0.42252408    -0.63800
N896        N  0.97849211  0.59087107  0.45336625    -0.06320
N897        N  0.96395926  0.61320968  0.42158873    -0.63390
N898        N  0.51995899  0.59051876  0.04972133    -0.05220
N899        N  0.53449320  0.61274895  0.08152442    -0.64080
Mn900      Mn  0.94187801  0.55655331  0.50111641     1.10660
C901        C  0.49875578  0.62713161  0.10044530     0.98900
C902        C  0.99969916  0.62763629  0.40269896     0.98980
N903        N  0.59059246  0.97843433  0.45325462    -0.06330
N904        N  0.61205524  0.96386469  0.42095570    -0.61700
N905        N  0.59063577  0.51985012  0.04964646    -0.05650
N906        N  0.61275164  0.53443701  0.08148901    -0.58430
N907        N  0.59109796  0.97795225  0.04923293    -0.06960
N908        N  0.61381514  0.96315375  0.08064100    -0.61270
N909        N  0.59102605  0.52033952  0.45366786    -0.05940
N910        N  0.61306973  0.53514770  0.42179987    -0.58450
Mn911      Mn  0.55661825  0.94175380  0.00124233     1.20190
Mn912      Mn  0.55658989  0.55653718  0.50177128     1.10090
Cl913      Cl  0.49924078  0.49914886  0.00131676    -0.86420
C914        C  0.62591770  0.99956323  0.40160808     0.95910
C915        C  0.62717623  0.49874588  0.10046617     0.95710
C916        C  0.99932055  0.77072473  0.25127449     0.00100
C917        C  0.99932133  0.72737459  0.25135027     0.00100
C918        C  0.77090018  0.00021928  0.25121204     0.00100
C919        C  0.72744053  0.00124922  0.25139717     0.00100
C920        C  0.70243199  0.00078538  0.21212531    -0.05920
C921        C  0.70464087  0.96560594  0.18532816    -0.33350
C922        C  0.68041226  0.96448190  0.14878258     0.35900
C923        C  0.65344512  0.99891560  0.13861014    -0.06280
C924        C  0.65150916  0.53414858  0.16540136    -0.33250
C925        C  0.67522623  0.53494522  0.20219439     0.35800
H926        H  0.72502724  0.93884911  0.19295125     0.16170
O927        O  0.68363210  0.92974438  0.12314025    -0.60750
H928        H  0.63101115  0.56094357  0.15817315     0.16190
O929        O  0.67269701  0.56989659  0.22764929    -0.60850
H930        H  0.64671763  0.56539338  0.24465835     0.43180
H931        H  0.70690181  0.93678874  0.10342722     0.43140
C932        C  0.65190367  0.99977485  0.36325047    -0.05920
C933        C  0.67803292  0.53494726  0.35436532    -0.33350
C934        C  0.70357298  0.53563041  0.31857845     0.35900
C935        C  0.70251712  0.00109355  0.29072123    -0.06280
C936        C  0.67561611  0.96646827  0.29903108    -0.33250
C937        C  0.65070485  0.96542763  0.33506109     0.35800
H938        H  0.67894699  0.56190760  0.37536225     0.16170
O939        O  0.72771365  0.57098427  0.30986005    -0.60750
H940        H  0.67413690  0.93996601  0.27749730     0.16190
O941        O  0.62479378  0.93097768  0.34197863    -0.60850
H942        H  0.59728621  0.93834948  0.32860272     0.43180
H943        H  0.74867425  0.57316407  0.33283410     0.43140
C944        C  0.79566196  0.00005613  0.21183822    -0.05920
C945        C  0.81992663  0.96402195  0.20181593    -0.33350
C946        C  0.84492321  0.96314496  0.16581668     0.35900
C947        C  0.84611461  0.99886878  0.13918250    -0.06280
C948        C  0.82225277  0.53520713  0.14966341    -0.33250
C949        C  0.79690991  0.53588073  0.18557101     0.35800
H950        H  0.81955271  0.93646457  0.22214428     0.16170
O951        O  0.86862539  0.92746226  0.15746870    -0.60750
H952        H  0.82303976  0.56316245  0.12989391     0.16190
O953        O  0.77493962  0.57220259  0.19579389    -0.60850
H954        H  0.75271207  0.57538605  0.17409934     0.43180
H955        H  0.89643180  0.93239515  0.17130044     0.43140
C956        C  0.84697220  0.99972298  0.36263003    -0.05920
C957        C  0.82136443  0.96438272  0.35297794    -0.33350
C958        C  0.79582065  0.96423619  0.31719414     0.35900
C959        C  0.79621364  0.99955759  0.29023142    -0.06280
C960        C  0.82274160  0.53426753  0.29916886    -0.33250
C961        C  0.84772381  0.53473764  0.33513732     0.35800
H962        H  0.82082284  0.93690448  0.37338530     0.16170
O963        O  0.77209848  0.92882234  0.30773718    -0.60750
H964        H  0.82379475  0.56132711  0.27823638     0.16190
O965        O  0.87322698  0.56933995  0.34269355    -0.60920
H966        H  0.90074721  0.56263066  0.32900822     0.43180
H967        H  0.75069745  0.92629444  0.33030454     0.43140
C968        C  0.99873576  0.65370396  0.13842118    -0.05920
C969        C  0.53463414  0.65363763  0.16449808    -0.33350
C970        C  0.53503512  0.67749658  0.20124703     0.35900
C971        C  0.99960368  0.70261927  0.21199133    -0.06280
C972        C  0.96388074  0.70310906  0.18582898    -0.33250
C973        C  0.96328326  0.67904058  0.14922473     0.35800
H974        H  0.56225544  0.63448214  0.15677612     0.16170
O975        O  0.57054034  0.67677482  0.22608982    -0.60750
H976        H  0.93617383  0.72187232  0.19408115     0.16190
O977        O  0.92793746  0.68070989  0.12422564    -0.60850
H978        H  0.93339127  0.70451438  0.10462968     0.43180
H979        H  0.56767525  0.65061855  0.24319264     0.43140
C980        C  0.99974374  0.65418999  0.36466810    -0.05920
C981        C  0.96374192  0.65437765  0.33874025    -0.33350
C982        C  0.96341707  0.67801125  0.30182385     0.35900
C983        C  0.99900486  0.70276612  0.29081973    -0.06280
C984        C  0.53479362  0.70313159  0.31689324    -0.33250
C985        C  0.53534296  0.67919719  0.35362067     0.35800
H986        H  0.93596598  0.63562489  0.34673460     0.16170
O987        O  0.92784089  0.67744413  0.27707589    -0.60750
H988        H  0.56258362  0.72168567  0.30847022     0.16190
O989        O  0.57078243  0.68067877  0.37849800    -0.60850
H990        H  0.56553888  0.70456486  0.39801857     0.43180
H991        H  0.93051619  0.65121651  0.26008914     0.43140
C992        C  0.99844377  0.84446363  0.13838966    -0.05920
C993        C  0.53707582  0.82889593  0.15455858    -0.33350
C994        C  0.53775347  0.80443142  0.19103835     0.35900
C995        C  0.99952543  0.79542438  0.21199025    -0.06280
C996        C  0.96097715  0.81065680  0.19594669    -0.33250
C997        C  0.96008400  0.83447186  0.15920785     0.35800
H998        H  0.56691674  0.83569040  0.13897512     0.16170
O999        O  0.57577655  0.78907371  0.20581195    -0.60750
H1000       H  0.93132089  0.80360302  0.21171020     0.16190
O1001       O  0.92151321  0.84827820  0.14442098    -0.60850
H1002       H  0.91046657  0.82438797  0.12738331     0.43180
H1003       H  0.59060922  0.81411390  0.21778291     0.43140
C1004       C  0.00013428  0.84469332  0.36391598    -0.05920
C1005       C  0.96152682  0.82902626  0.34783740    -0.33350
C1006       C  0.96087114  0.80450275  0.31143570     0.35900
C1007       C  0.99910077  0.79550528  0.29048105    -0.06280
C1008       C  0.53762909  0.81082474  0.30644414    -0.33250
C1009       C  0.53849808  0.83474714  0.34308216     0.35800
H1010       H  0.93168529  0.83579220  0.36343017     0.16170
O1011       O  0.92286555  0.78908112  0.29674057    -0.60750
H1012       H  0.56728746  0.80378113  0.29068352     0.16190
O1013       O  0.57704202  0.84873332  0.35773291    -0.60850
H1014       H  0.58823364  0.82492347  0.37484125     0.43180
H1015       H  0.90801123  0.81407276  0.28463220     0.43140
N1016       N  0.90804564  0.52018953  0.95291207    -0.06580
N1017       N  0.88664062  0.53503457  0.92069622    -0.58700
N1018       N  0.90772400  0.97813499  0.54912948    -0.06260
N1019       N  0.88609604  0.96334899  0.58125108    -0.60830
N1020       N  0.90738093  0.52003887  0.54900433    -0.05860
N1021       N  0.88528741  0.53461878  0.58092863    -0.58670
N1022       N  0.90761367  0.97828891  0.95304507    -0.05530
N1023       N  0.88563697  0.96375498  0.92104373    -0.61180
C1024       C  0.87282853  0.99952054  0.90107112     0.95600
C1025       C  0.87224992  0.49890077  0.60084236     0.95380
N1026       N  0.52013360  0.90726294  0.54914638    -0.06760
N1027       N  0.53456260  0.88473705  0.58087535    -0.59280
N1028       N  0.97837860  0.90746732  0.95307650    -0.04880
N1029       N  0.96397218  0.88496545  0.92136613    -0.60530
N1030       N  0.52026895  0.90763214  0.95325958    -0.06790
N1031       N  0.53520006  0.88535523  0.92169240    -0.59540
N1032       N  0.97823621  0.90741708  0.54896052    -0.04530
N1033       N  0.96333019  0.88510823  0.58054546    -0.60620
Mn1034     Mn  0.94186650  0.94175841  0.50104041     1.18440
C1035       C  0.49874290  0.87104832  0.60023537     0.97680
C1036       C  0.99980482  0.87131055  0.90200834     0.98340
N1037       N  0.97805750  0.59091116  0.54925129    -0.06810
N1038       N  0.96321662  0.61363566  0.58059939    -0.63120
N1039       N  0.52038776  0.59123406  0.95384139    -0.05620
N1040       N  0.53523218  0.61403925  0.92252408    -0.63800
N1041       N  0.97849211  0.59087107  0.95336625    -0.06320
N1042       N  0.96395927  0.61320968  0.92158873    -0.63390
N1043       N  0.51995899  0.59051876  0.54972133    -0.05220
N1044       N  0.53449320  0.61274895  0.58152442    -0.64080
Mn1045     Mn  0.94187801  0.55655331  0.00111641     1.10660
C1046       C  0.49875578  0.62713161  0.60044530     0.98900
C1047       C  0.99969916  0.62763629  0.90269896     0.98980
N1048       N  0.59059246  0.97843433  0.95325462    -0.06330
N1049       N  0.61205524  0.96386469  0.92095570    -0.61700
N1050       N  0.59063577  0.51985012  0.54964646    -0.05650
N1051       N  0.61275164  0.53443702  0.58148901    -0.58430
N1052       N  0.59109796  0.97795225  0.54923293    -0.06960
N1053       N  0.61381514  0.96315374  0.58064100    -0.61270
N1054       N  0.59102605  0.52033952  0.95366786    -0.05940
N1055       N  0.61306973  0.53514770  0.92179987    -0.58450
Mn1056     Mn  0.55661825  0.94175380  0.50124233     1.20190
Mn1057     Mn  0.55658989  0.55653718  0.00177129     1.10090
Cl1058     Cl  0.49924078  0.49914886  0.50131676    -0.86420
C1059       C  0.62591770  0.99956323  0.90160808     0.95910
C1060       C  0.62717623  0.49874588  0.60046617     0.95710
C1061       C  0.99932055  0.77072473  0.75127449     0.00100
C1062       C  0.99932133  0.72737459  0.75135027     0.00100
C1063       C  0.77090018  0.00021928  0.75121204     0.00100
C1064       C  0.72744053  0.00124922  0.75139717     0.00100
C1065       C  0.70243199  0.00078538  0.71212531    -0.05920
C1066       C  0.70464087  0.96560594  0.68532816    -0.33350
C1067       C  0.68041226  0.96448190  0.64878258     0.35900
C1068       C  0.65344512  0.99891560  0.63861014    -0.06280
C1069       C  0.65150915  0.53414858  0.66540136    -0.33250
C1070       C  0.67522623  0.53494522  0.70219439     0.35800
H1071       H  0.72502724  0.93884911  0.69295125     0.16170
O1072       O  0.68363210  0.92974438  0.62314025    -0.60750
H1073       H  0.63101115  0.56094357  0.65817315     0.16190
O1074       O  0.67269701  0.56989660  0.72764929    -0.60850
H1075       H  0.64671763  0.56539338  0.74465835     0.43180
H1076       H  0.70690181  0.93678874  0.60342722     0.43140
C1077       C  0.65190367  0.99977485  0.86325047    -0.05920
C1078       C  0.67803292  0.53494726  0.85436532    -0.33350
C1079       C  0.70357298  0.53563041  0.81857845     0.35900
C1080       C  0.70251712  0.00109355  0.79072123    -0.06280
C1081       C  0.67561610  0.96646827  0.79903108    -0.33250
C1082       C  0.65070485  0.96542763  0.83506109     0.35800
H1083       H  0.67894699  0.56190760  0.87536225     0.16170
O1084       O  0.72771365  0.57098427  0.80986005    -0.60750
H1085       H  0.67413690  0.93996601  0.77749730     0.16190
O1086       O  0.62479377  0.93097769  0.84197863    -0.60850
H1087       H  0.59728621  0.93834948  0.82860272     0.43180
H1088       H  0.74867425  0.57316407  0.83283410     0.43140
C1089       C  0.79566196  0.00005613  0.71183822    -0.05920
C1090       C  0.81992663  0.96402196  0.70181593    -0.33350
C1091       C  0.84492321  0.96314496  0.66581668     0.35900
C1092       C  0.84611461  0.99886878  0.63918250    -0.06280
C1093       C  0.82225277  0.53520713  0.64966341    -0.33250
C1094       C  0.79690991  0.53588073  0.68557101     0.35800
H1095       H  0.81955271  0.93646457  0.72214428     0.16170
O1096       O  0.86862539  0.92746227  0.65746870    -0.60750
H1097       H  0.82303976  0.56316245  0.62989391     0.16190
O1098       O  0.77493962  0.57220259  0.69579389    -0.60850
H1099       H  0.75271207  0.57538605  0.67409934     0.43180
H1100       H  0.89643181  0.93239515  0.67130044     0.43140
C1101       C  0.84697220  0.99972298  0.86263003    -0.05920
C1102       C  0.82136443  0.96438272  0.85297794    -0.33350
C1103       C  0.79582065  0.96423619  0.81719414     0.35900
C1104       C  0.79621364  0.99955759  0.79023142    -0.06280
C1105       C  0.82274160  0.53426753  0.79916886    -0.33250
C1106       C  0.84772381  0.53473764  0.83513732     0.35800
H1107       H  0.82082284  0.93690448  0.87338530     0.16170
O1108       O  0.77209848  0.92882234  0.80773718    -0.60750
H1109       H  0.82379475  0.56132711  0.77823638     0.16190
O1110       O  0.87322698  0.56933995  0.84269355    -0.60920
H1111       H  0.90074721  0.56263066  0.82900822     0.43180
H1112       H  0.75069745  0.92629444  0.83030454     0.43140
C1113       C  0.99873576  0.65370395  0.63842118    -0.05920
C1114       C  0.53463414  0.65363763  0.66449808    -0.33350
C1115       C  0.53503512  0.67749657  0.70124703     0.35900
C1116       C  0.99960368  0.70261927  0.71199133    -0.06280
C1117       C  0.96388074  0.70310906  0.68582898    -0.33250
C1118       C  0.96328327  0.67904058  0.64922473     0.35800
H1119       H  0.56225544  0.63448213  0.65677612     0.16170
O1120       O  0.57054034  0.67677481  0.72608982    -0.60750
H1121       H  0.93617384  0.72187233  0.69408115     0.16190
O1122       O  0.92793747  0.68070990  0.62422563    -0.60850
H1123       H  0.93339128  0.70451439  0.60462968     0.43180
H1124       H  0.56767524  0.65061854  0.74319265     0.43140
C1125       C  0.99974374  0.65418999  0.86466810    -0.05920
C1126       C  0.96374192  0.65437765  0.83874025    -0.33350
C1127       C  0.96341708  0.67801125  0.80182385     0.35900
C1128       C  0.99900486  0.70276612  0.79081973    -0.06280
C1129       C  0.53479361  0.70313159  0.81689325    -0.33250
C1130       C  0.53534296  0.67919719  0.85362068     0.35800
H1131       H  0.93596599  0.63562488  0.84673459     0.16170
O1132       O  0.92784090  0.67744412  0.77707588    -0.60750
H1133       H  0.56258362  0.72168568  0.80847022     0.16190
O1134       O  0.57078243  0.68067878  0.87849801    -0.60850
H1135       H  0.56553887  0.70456487  0.89801857     0.43180
H1136       H  0.93051620  0.65121650  0.76008914     0.43140
C1137       C  0.99844377  0.84446363  0.63838966    -0.05920
C1138       C  0.53707582  0.82889592  0.65455858    -0.33350
C1139       C  0.53775347  0.80443141  0.69103834     0.35900
C1140       C  0.99952544  0.79542438  0.71199025    -0.06280
C1141       C  0.96097715  0.81065681  0.69594669    -0.33250
C1142       C  0.96008400  0.83447187  0.65920786     0.35800
H1143       H  0.56691674  0.83569038  0.63897511     0.16170
O1144       O  0.57577655  0.78907369  0.70581194    -0.60750
H1145       H  0.93132089  0.80360304  0.71171021     0.16190
O1146       O  0.92151322  0.84827822  0.64442099    -0.60850
H1147       H  0.91046657  0.82438799  0.62738332     0.43180
H1148       H  0.59060923  0.81411387  0.71778290     0.43140
C1149       C  0.00013428  0.84469332  0.86391598    -0.05920
C1150       C  0.96152682  0.82902625  0.84783741    -0.33350
C1151       C  0.96087115  0.80450274  0.81143570     0.35900
C1152       C  0.99910077  0.79550528  0.79048105    -0.06280
C1153       C  0.53762909  0.81082475  0.80644414    -0.33250
C1154       C  0.53849808  0.83474715  0.84308216     0.35800
H1155       H  0.93168530  0.83579218  0.86343018     0.16170
O1156       O  0.92286556  0.78908110  0.79674058    -0.60750
H1157       H  0.56728746  0.80378115  0.79068351     0.16190
O1158       O  0.57704202  0.84873334  0.85773290    -0.60850
H1159       H  0.58823365  0.82492349  0.87484123     0.43180
H1160       H  0.90801122  0.81407274  0.78463221     0.43140
loop_ 
_geom_bond_atom_site_label_1 
_geom_bond_atom_site_label_2 
_geom_bond_distance 
_geom_bond_site_symmetry_2 
_ccdc_geom_bond_type 
N1            N2   1.320       .  A
N1          N297   1.315   1_545  A
N1          Mn30   2.200       .  S
N2          C299   1.353   1_545  A
N3            N4   1.320       .  A
N3          N295   1.315       .  A
N3          Mn19   2.201       .  S
N4          C300   1.353       .  A
N5            N6   1.321       .  A
N5          N293   1.315   1_545  A
N5         Mn175   2.203       .  S
N6           C10   1.354   1_545  A
N7            N8   1.321       .  A
N7          N291   1.315       .  A
N7         Mn164   2.202       .  S
N8            C9   1.354       .  A
C9          N292   1.353       .  A
C9           C86   1.479       .  S
C10         N294   1.353       .  A
C10         C367   1.481       .  S
N11          N12   1.321       .  A
N11         N597   1.315   1_455  A
N11         Mn41   2.203       .  S
N12          C20   1.355   1_455  A
N13          N14   1.321       .  A
N13         N595   1.315       .  A
N13        Mn164   2.203       .  S
N14          C21   1.355       .  A
N15          N16   1.319       .  A
N15         N593   1.315   1_455  A
N15        Mn186   2.199       .  S
N16         C601   1.353   1_455  A
N17          N18   1.319       .  A
N17         N591   1.315       .  A
N17         Mn19   2.199       .  S
N18         C600   1.353       .  A
Mn19        N152   2.202   1_554  S
Mn19        N158   2.203   1_554  S
Mn19       Cl913   2.547       .  S
C20         N598   1.353       .  A
C20         C702   1.483       .  S
C21         N596   1.353       .  A
C21         C134   1.483       .  S
N22          N23   1.320       .  A
N22         N608   1.315       .  A
N22        Mn175   2.203       .  S
N23         C611   1.354       .  A
N24          N25   1.320       .  A
N24         N606   1.315   1_455  A
N24         Mn42   2.202       .  S
N25         C612   1.353   1_455  A
N26          N27   1.320       .  A
N26         N604   1.315       .  A
N26         Mn30   2.199       .  S
N27          C32   1.353       .  A
N28          N29   1.320       .  A
N28         N602   1.315   1_455  A
N28        Mn187   2.199       .  S
N29          C31   1.353   1_455  A
Mn30        N150   2.203       .  S
Mn30        N167   2.203       .  S
Mn30       Cl768   2.546   1_545  S
C31         N603   1.354       .  A
C31         C678   1.479       .  S
C32         N605   1.353       .  A
C32         C110   1.479       .  S
N33          N34   1.320       .  A
N33         N329   1.315       .  A
N33        Mn186   2.200       .  S
N34          C44   1.353       .  A
N35          N36   1.320       .  A
N35         N327   1.315   1_545  A
N35        Mn187   2.199       .  S
N36          C45   1.353   1_545  A
N37          N38   1.321       .  A
N37         N325   1.315       .  A
N37         Mn41   2.202       .  S
N38         C335   1.353       .  A
N39          N40   1.321       .  A
N39         N323   1.315   1_545  A
N39         Mn42   2.203       .  S
N40         C334   1.354   1_545  A
Mn41        N160   2.199   1_554  S
Mn41        N178   2.200   1_554  S
Mn41       Cl333   2.546   1_455  S
Mn42        N173   2.199       .  S
Mn42        N180   2.199       .  S
Mn42       Cl188   2.547   1_445  S
Cl43       Mn889   2.547       .  S
Cl43       Mn755   2.546   1_565  S
Cl43       Mn331   2.546   1_655  S
Cl43       Mn187   2.547   1_665  S
C44         N330   1.354       .  A
C44          C62   1.479       .  S
C45         N328   1.353       .  A
C45         C343   1.478       .  S
C46          C47   1.360       .  D
C46         C125   1.482       .  S
C46         C137   1.482       .  S
C47         C101   1.486       .  S
C47         C113   1.485       .  S
C48          C49   1.364       .  D
C48          C74   1.486       .  S
C48          C89   1.486       .  S
C49          C50   1.487       .  S
C49          C65   1.487       .  S
C50          C51   1.403       .  A
C50         C345   1.407       .  A
C51          C52   1.401       .  A
C51          H56   1.083       .  S
C52          C53   1.411       .  A
C52          O57   1.371       .  S
C53         C335   1.478       .  S
C53         C344   1.404       .  A
C54          C55   1.398       .  A
C54         C343   1.404   1_545  A
C54          H58   1.084       .  S
C55         C340   1.407       .  A
C55          O59   1.372       .  S
O57          H61   0.992       .  S
O59          H60   0.992       .  S
C62          C67   1.410       .  A
C62         C353   1.404       .  A
C63          C64   1.402       .  A
C63         C352   1.404   1_545  A
C63          H68   1.083       .  S
C64         C355   1.407       .  A
C64          O69   1.372       .  S
C65          C66   1.402       .  A
C65         C354   1.407       .  A
C66          C67   1.398       .  A
C66          H70   1.084       .  S
C67          O71   1.371       .  S
O69          H73   0.992       .  S
O71          H72   0.992       .  S
C74          C75   1.401       .  A
C74         C369   1.406       .  A
C75          C76   1.399       .  A
C75          H80   1.084       .  S
C76          C77   1.411       .  A
C76          O81   1.371       .  S
C77         C300   1.481       .  S
C77         C368   1.405       .  A
C78          C79   1.402       .  A
C78         C367   1.405   1_545  A
C78          H82   1.083       .  S
C79         C364   1.406       .  A
C79          O83   1.372       .  S
O81          H85   0.992       .  S
O83          H84   0.992       .  S
C86          C87   1.405       .  A
C86         C381   1.410       .  A
C87          C88   1.403       .  A
C87          H92   1.083       .  S
C88          C89   1.407       .  A
C88          O93   1.372       .  S
C89         C380   1.401       .  A
C90          C91   1.398       .  A
C90         C379   1.401   1_545  A
C90          H94   1.084       .  S
C91         C376   1.410   1_545  A
C91          O95   1.371       .  S
O93          H97   0.992       .  S
O95          H96   0.992       .  S
C98         C611   1.479       .  S
C98         C103   1.411       .  A
C98         C679   1.405       .  A
C99         C100   1.400       .  A
C99         C678   1.405   1_455  A
C99         H104   1.084       .  S
C100        C681   1.406   1_455  A
C100        O105   1.372       .  S
C101        C102   1.402       .  A
C101        C680   1.406       .  A
C102        C103   1.399       .  A
C102        H106   1.083       .  S
C103        O107   1.371       .  S
O105        H109   0.992       .  S
O107        H108   0.992       .  S
C110        C111   1.405       .  A
C110        C695   1.411       .  A
C111        C112   1.399       .  A
C111        H116   1.083       .  S
C112        C113   1.406       .  A
C112        O117   1.372       .  S
C113        C694   1.402       .  A
C114        C115   1.399       .  A
C114        C693   1.402   1_455  A
C114        H118   1.083       .  S
C115        C690   1.411   1_455  A
C115        O119   1.371       .  S
O117        H121   0.992       .  S
O119        H120   0.992       .  S
C122        C600   1.483       .  S
C122        C127   1.413       .  A
C122        C703   1.407       .  A
C123        C124   1.402       .  A
C123        C702   1.407   1_455  A
C123        H128   1.083       .  S
C124        C705   1.405   1_455  A
C124        O129   1.372       .  S
C125        C126   1.399       .  A
C125        C704   1.405       .  A
C126        C127   1.398       .  A
C126        H130   1.083       .  S
C127        O131   1.371       .  S
O129        H133   0.992       .  S
O131        H132   0.992       .  S
C134        C135   1.407       .  A
C134        C719   1.413       .  A
C135        C136   1.402       .  A
C135        H140   1.083       .  S
C136        C137   1.405       .  A
C136        O141   1.372       .  S
C137        C718   1.399       .  A
C138        C139   1.398       .  A
C138        C717   1.399   1_455  A
C138        H142   1.083       .  S
C139        C714   1.413       .  A
C139        O143   1.371       .  S
O141        H145   0.992       .  S
O143        H144   0.992       .  S
N146        N147   1.320       .  A
N146        N442   1.315   1_545  A
N146       Mn175   2.200   1_556  S
N147        C444   1.353   1_545  A
N148        N440   1.315       .  A
N148        N149   1.320       .  A
N148       Mn164   2.201       .  S
N149        C445   1.353       .  A
N150        N438   1.315   1_545  A
N150        N151   1.321       .  A
N151        C155   1.354   1_545  A
N152        N436   1.315       .  A
N152        N153   1.321       .  A
N153        C154   1.354       .  A
C154        N437   1.353       .  A
C154        C231   1.479       .  S
C155        N439   1.353       .  A
C155        C512   1.481       .  S
N156        N742   1.315   1_455  A
N156        N157   1.321       .  A
N156       Mn186   2.203       .  S
N157        C165   1.355   1_455  A
N158        N159   1.321       .  A
N158        N740   1.315       .  A
N159        C166   1.355       .  A
N160        N738   1.315   1_455  A
N160        N161   1.319       .  A
N161        C746   1.353   1_455  A
N162        N736   1.315       .  A
N162        N163   1.319       .  A
N162       Mn164   2.199       .  S
N163        C745   1.353       .  A
Mn164     Cl1058   2.547       .  S
C165        N743   1.353       .  A
C165        C847   1.483       .  S
C166        N741   1.353       .  A
C166        C279   1.483       .  S
N167        N168   1.320       .  A
N167        N753   1.315       .  A
N168        C756   1.354       .  A
N169        N751   1.315   1_455  A
N169        N170   1.320       .  A
N169       Mn187   2.202   1_556  S
N170        C757   1.353   1_455  A
N171        N749   1.315       .  A
N171        N172   1.320       .  A
N171       Mn175   2.199   1_556  S
N172        C177   1.353       .  A
N173        N747   1.315   1_455  A
N173        N174   1.320       .  A
N174        C176   1.353   1_455  A
Mn175      Cl623   2.546   1_545  S
C176        N748   1.354       .  A
C176        C823   1.479       .  S
C177        N750   1.353       .  A
C177        C255   1.479       .  S
N178        N179   1.320       .  A
N178        N474   1.315       .  A
N179        C189   1.353       .  A
N180        N181   1.320       .  A
N180        N472   1.315   1_545  A
N181        C190   1.353   1_545  A
N182        N470   1.315       .  A
N182        N183   1.321       .  A
N182       Mn186   2.202       .  S
N183        C480   1.353       .  A
N184        N468   1.315   1_545  A
N184        N185   1.321       .  A
N184       Mn187   2.203   1_556  S
N185        C479   1.354   1_545  A
Mn186      Cl478   2.546   1_455  S
Cl188     Mn1034   2.547       .  S
Cl188      Mn610   2.546   1_565  S
Cl188      Mn476   2.546   1_655  S
C189        N475   1.354       .  A
C189        C207   1.479       .  S
C190        N473   1.353       .  A
C190        C488   1.478       .  S
C191        C192   1.360       .  D
C191        C270   1.482       .  S
C191        C282   1.482       .  S
C192        C246   1.486       .  S
C192        C258   1.485       .  S
C193        C194   1.364       .  D
C193        C219   1.486       .  S
C193        C234   1.486       .  S
C194        C195   1.487       .  S
C194        C210   1.487       .  S
C195        C196   1.403       .  A
C195        C490   1.407       .  A
C196        C197   1.401       .  A
C196        H201   1.083       .  S
C197        C198   1.411       .  A
C197        O202   1.371       .  S
C198        C480   1.478       .  S
C198        C489   1.404       .  A
C199        C488   1.404   1_545  A
C199        C200   1.398       .  A
C199        H203   1.084       .  S
C200        C485   1.407       .  A
C200        O204   1.372       .  S
O202        H206   0.992       .  S
O204        H205   0.992       .  S
C207        C498   1.404       .  A
C207        C212   1.410       .  A
C208        C497   1.404   1_545  A
C208        C209   1.402       .  A
C208        H213   1.083       .  S
C209        C500   1.407       .  A
C209        O214   1.372       .  S
C210        C499   1.407       .  A
C210        C211   1.402       .  A
C211        C212   1.398       .  A
C211        H215   1.084       .  S
C212        O216   1.371       .  S
O214        H218   0.992       .  S
O216        H217   0.992       .  S
C219        C220   1.401       .  A
C219        C514   1.406       .  A
C220        C221   1.399       .  A
C220        H225   1.084       .  S
C221        C222   1.411       .  A
C221        O226   1.371       .  S
C222        C445   1.481       .  S
C222        C513   1.405       .  A
C223        C512   1.405   1_545  A
C223        C224   1.402       .  A
C223        H227   1.083       .  S
C224        C509   1.406       .  A
C224        O228   1.372       .  S
O226        H230   0.992       .  S
O228        H229   0.992       .  S
C231        C232   1.405       .  A
C231        C526   1.410       .  A
C232        C233   1.403       .  A
C232        H237   1.083       .  S
C233        C234   1.407       .  A
C233        O238   1.372       .  S
C234        C525   1.401       .  A
C235        C524   1.401   1_545  A
C235        C236   1.398       .  A
C235        H239   1.084       .  S
C236        C521   1.410   1_545  A
C236        O240   1.371       .  S
O238        H242   0.992       .  S
O240        H241   0.992       .  S
C243        C756   1.479       .  S
C243        C824   1.405       .  A
C243        C248   1.411       .  A
C244        C823   1.405   1_455  A
C244        C245   1.400       .  A
C244        H249   1.084       .  S
C245        C826   1.406   1_455  A
C245        O250   1.372       .  S
C246        C825   1.406       .  A
C246        C247   1.402       .  A
C247        C248   1.399       .  A
C247        H251   1.083       .  S
C248        O252   1.371       .  S
O250        H254   0.992       .  S
O252        H253   0.992       .  S
C255        C256   1.405       .  A
C255        C840   1.411       .  A
C256        C257   1.399       .  A
C256        H261   1.083       .  S
C257        C258   1.406       .  A
C257        O262   1.372       .  S
C258        C839   1.402       .  A
C259        C838   1.402   1_455  A
C259        C260   1.399       .  A
C259        H263   1.083       .  S
C260        C835   1.411   1_455  A
C260        O264   1.371       .  S
O262        H266   0.992       .  S
O264        H265   0.992       .  S
C267        C745   1.483       .  S
C267        C848   1.407       .  A
C267        C272   1.413       .  A
C268        C847   1.407   1_455  A
C268        C269   1.402       .  A
C268        H273   1.083       .  S
C269        C850   1.405   1_455  A
C269        O274   1.372       .  S
C270        C849   1.405       .  A
C270        C271   1.399       .  A
C271        C272   1.398       .  A
C271        H275   1.083       .  S
C272        O276   1.371       .  S
O274        H278   0.992       .  S
O276        H277   0.992       .  S
C279        C280   1.407       .  A
C279        C864   1.413       .  A
C280        C281   1.402       .  A
C280        H285   1.083       .  S
C281        C282   1.405       .  A
C281        O286   1.372       .  S
C282        C863   1.399       .  A
C283        C862   1.399   1_455  A
C283        C284   1.398       .  A
C283        H287   1.083       .  S
C284        C859   1.413       .  A
C284        O288   1.371       .  S
O286        H290   0.992       .  S
O288        H289   0.992       .  S
N291        N292   1.320       .  A
N291       Mn320   2.200       .  S
N293        N294   1.320       .  A
N293       Mn309   2.201       .  S
N295        N296   1.321       .  A
N295       Mn465   2.203       .  S
N296        C300   1.354       .  A
N297        N298   1.321       .  A
N297       Mn454   2.202       .  S
N298        C299   1.354       .  A
C299        C376   1.479       .  S
N301        N887   1.315   1_455  A
N301        N302   1.321       .  A
N301       Mn331   2.203       .  S
N302        C310   1.355   1_455  A
N303        N304   1.321       .  A
N303        N885   1.315       .  A
N303       Mn454   2.203       .  S
N304        C311   1.355       .  A
N305        N883   1.315   1_455  A
N305        N306   1.319       .  A
N305       Mn476   2.199       .  S
N306        C891   1.353   1_455  A
N307        N881   1.315       .  A
N307        N308   1.319       .  A
N307       Mn309   2.199       .  S
N308        C890   1.353       .  A
Mn309       N442   2.202   1_554  S
Mn309       N448   2.203   1_554  S
Mn309      Cl623   2.547       .  S
C310        N888   1.353       .  A
C310        C992   1.483       .  S
C311        N886   1.353       .  A
C311        C424   1.483       .  S
N312        N313   1.320       .  A
N312        N898   1.315       .  A
N312       Mn465   2.203       .  S
N313        C901   1.354       .  A
N314        N896   1.315   1_455  A
N314        N315   1.320       .  A
N314       Mn332   2.202       .  S
N315        C902   1.353   1_455  A
N316        N894   1.315       .  A
N316        N317   1.320       .  A
N316       Mn320   2.199       .  S
N317        C322   1.353       .  A
N318        N892   1.315   1_455  A
N318        N319   1.320       .  A
N318       Mn477   2.199       .  S
N319        C321   1.353   1_455  A
Mn320       N440   2.203       .  S
Mn320       N457   2.203       .  S
Mn320     Cl1058   2.546       .  S
C321        N893   1.354       .  A
C321        C968   1.479       .  S
C322        N895   1.353       .  A
C322        C400   1.479       .  S
N323        N324   1.320       .  A
N323       Mn476   2.200       .  S
N324        C334   1.353       .  A
N325        N326   1.320       .  A
N325       Mn477   2.199       .  S
N326        C335   1.353       .  A
N327        N328   1.321       .  A
N327       Mn331   2.202       .  S
N329        N330   1.321       .  A
N329       Mn332   2.203       .  S
Mn331       N450   2.199   1_554  S
Mn331       N468   2.200   1_554  S
Mn332       N463   2.199       .  S
Mn332       N470   2.199       .  S
Mn332      Cl478   2.547   1_455  S
Cl333      Mn599   2.547       .  S
Cl333     Mn1045   2.546       .  S
Cl333      Mn477   2.547   1_655  S
C334        C352   1.479       .  S
C336        C337   1.360       .  D
C336        C415   1.482       .  S
C336        C427   1.482       .  S
C337        C391   1.486       .  S
C337        C403   1.485       .  S
C338        C339   1.364       .  D
C338        C364   1.486       .  S
C338        C379   1.486   1_545  S
C339        C340   1.487       .  S
C339        C355   1.487       .  S
C340        C341   1.403   1_545  A
C341        C342   1.401       .  A
C341        H346   1.083       .  S
C342        C343   1.411       .  A
C342        O347   1.371       .  S
C344        C345   1.398       .  A
C344        H348   1.084       .  S
C345        O349   1.372       .  S
O347        H351   0.992       .  S
O349        H350   0.992       .  S
C352        C357   1.410       .  A
C353        C354   1.402       .  A
C353        H358   1.083       .  S
C354        O359   1.372       .  S
C355        C356   1.402   1_545  A
C356        C357   1.398       .  A
C356        H360   1.084       .  S
C357        O361   1.371       .  S
O359        H363   0.992       .  S
O361        H362   0.992       .  S
C364        C365   1.401   1_545  A
C365        C366   1.399       .  A
C365        H370   1.084       .  S
C366        C367   1.411       .  A
C366        O371   1.371       .  S
C368        C369   1.402       .  A
C368        H372   1.083       .  S
C369        O373   1.372       .  S
O371        H375   0.992       .  S
O373        H374   0.992       .  S
C376        C377   1.405       .  A
C377        C378   1.403       .  A
C377        H382   1.083       .  S
C378        C379   1.407       .  A
C378        O383   1.372       .  S
C380        C381   1.398       .  A
C380        H384   1.084       .  S
C381        O385   1.371       .  S
O383        H387   0.992       .  S
O385        H386   0.992       .  S
C388        C901   1.479       .  S
C388        C969   1.405       .  A
C388        C393   1.411       .  A
C389        C968   1.405   1_455  A
C389        C390   1.400       .  A
C389        H394   1.084       .  S
C390        C971   1.406   1_455  A
C390        O395   1.372       .  S
C391        C970   1.406       .  A
C391        C392   1.402       .  A
C392        C393   1.399       .  A
C392        H396   1.083       .  S
C393        O397   1.371       .  S
O395        H399   0.992       .  S
O397        H398   0.992       .  S
C400        C401   1.405       .  A
C400        C985   1.411       .  A
C401        C402   1.399       .  A
C401        H406   1.083       .  S
C402        C403   1.406       .  A
C402        O407   1.372       .  S
C403        C984   1.402       .  A
C404        C983   1.402   1_455  A
C404        C405   1.399       .  A
C404        H408   1.083       .  S
C405        C980   1.411   1_455  A
C405        O409   1.371       .  S
O407        H411   0.992       .  S
O409        H410   0.992       .  S
C412        C890   1.483       .  S
C412        C993   1.407       .  A
C412        C417   1.413       .  A
C413        C992   1.407   1_455  A
C413        C414   1.402       .  A
C413        H418   1.083       .  S
C414        C995   1.405   1_455  A
C414        O419   1.372       .  S
C415        C994   1.405       .  A
C415        C416   1.399       .  A
C416        C417   1.398       .  A
C416        H420   1.083       .  S
C417        O421   1.371       .  S
O419        H423   0.992       .  S
O421        H422   0.992       .  S
C424        C425   1.407       .  A
C424       C1009   1.413       .  A
C425        C426   1.402       .  A
C425        H430   1.083       .  S
C426        C427   1.405       .  A
C426        O431   1.372       .  S
C427       C1008   1.399       .  A
C428       C1007   1.399   1_455  A
C428        C429   1.398       .  A
C428        H432   1.083       .  S
C429       C1004   1.413       .  A
C429        O433   1.371       .  S
O431        H435   0.992       .  S
O433        H434   0.992       .  S
N436        N437   1.320       .  A
N436       Mn465   2.200   1_556  S
N438        N439   1.320       .  A
N438       Mn454   2.201       .  S
N440        N441   1.321       .  A
N441        C445   1.354       .  A
N442        N443   1.321       .  A
N443        C444   1.354       .  A
C444        C521   1.479       .  S
N446       N1032   1.315   1_455  A
N446        N447   1.321       .  A
N446       Mn476   2.203       .  S
N447        C455   1.355   1_455  A
N448        N449   1.321       .  A
N448       N1030   1.315       .  A
N449        C456   1.355       .  A
N450       N1028   1.315   1_455  A
N450        N451   1.319       .  A
N451       C1036   1.353   1_455  A
N452       N1026   1.315       .  A
N452        N453   1.319       .  A
N452       Mn454   2.199       .  S
N453       C1035   1.353       .  A
Mn454      Cl768   2.547       .  S
C455       N1033   1.353       .  A
C455       C1137   1.483       .  S
C456       N1031   1.353       .  A
C456        C569   1.483       .  S
N457        N458   1.320       .  A
N457       N1043   1.315       .  A
N458       C1046   1.354       .  A
N459       N1041   1.315   1_455  A
N459        N460   1.320       .  A
N459       Mn477   2.202   1_556  S
N460       C1047   1.353   1_455  A
N461       N1039   1.315       .  A
N461        N462   1.320       .  A
N461       Mn465   2.199   1_556  S
N462        C467   1.353       .  A
N463       N1037   1.315   1_455  A
N463        N464   1.320       .  A
N464        C466   1.353   1_455  A
Mn465      Cl913   2.546       .  S
C466       N1038   1.354       .  A
C466       C1113   1.479       .  S
C467       N1040   1.353       .  A
C467        C545   1.479       .  S
N468        N469   1.320       .  A
N469        C479   1.353       .  A
N470        N471   1.320       .  A
N471        C480   1.353       .  A
N472        N473   1.321       .  A
N472       Mn476   2.202       .  S
N474        N475   1.321       .  A
N474       Mn477   2.203   1_556  S
Cl478      Mn744   2.547       .  S
Cl478      Mn900   2.546       .  S
C479        C497   1.479       .  S
C481        C482   1.360       .  D
C481        C560   1.482       .  S
C481        C572   1.482       .  S
C482        C536   1.486       .  S
C482        C548   1.485       .  S
C483        C484   1.364       .  D
C483        C509   1.486       .  S
C483        C524   1.486   1_545  S
C484        C485   1.487       .  S
C484        C500   1.487       .  S
C485        C486   1.403   1_545  A
C486        C487   1.401       .  A
C486        H491   1.083       .  S
C487        C488   1.411       .  A
C487        O492   1.371       .  S
C489        C490   1.398       .  A
C489        H493   1.084       .  S
C490        O494   1.372       .  S
O492        H496   0.992       .  S
O494        H495   0.992       .  S
C497        C502   1.410       .  A
C498        C499   1.402       .  A
C498        H503   1.083       .  S
C499        O504   1.372       .  S
C500        C501   1.402   1_545  A
C501        C502   1.398       .  A
C501        H505   1.084       .  S
C502        O506   1.371       .  S
O504        H508   0.992       .  S
O506        H507   0.992       .  S
C509        C510   1.401   1_545  A
C510        C511   1.399       .  A
C510        H515   1.084       .  S
C511        C512   1.411       .  A
C511        O516   1.371       .  S
C513        C514   1.402       .  A
C513        H517   1.083       .  S
C514        O518   1.372       .  S
O516        H520   0.992       .  S
O518        H519   0.992       .  S
C521        C522   1.405       .  A
C522        C523   1.403       .  A
C522        H527   1.083       .  S
C523        C524   1.407       .  A
C523        O528   1.372       .  S
C525        C526   1.398       .  A
C525        H529   1.084       .  S
C526        O530   1.371       .  S
O528        H532   0.992       .  S
O530        H531   0.992       .  S
C533       C1046   1.479       .  S
C533       C1114   1.405       .  A
C533        C538   1.411       .  A
C534       C1113   1.405   1_455  A
C534        C535   1.400       .  A
C534        H539   1.084       .  S
C535       C1116   1.406   1_455  A
C535        O540   1.372       .  S
C536       C1115   1.406       .  A
C536        C537   1.402       .  A
C537        C538   1.399       .  A
C537        H541   1.083       .  S
C538        O542   1.371       .  S
O540        H544   0.992       .  S
O542        H543   0.992       .  S
C545        C546   1.405       .  A
C545       C1130   1.411       .  A
C546        C547   1.399       .  A
C546        H551   1.083       .  S
C547        C548   1.406       .  A
C547        O552   1.372       .  S
C548       C1129   1.402       .  A
C549       C1128   1.402   1_455  A
C549        C550   1.399       .  A
C549        H553   1.083       .  S
C550       C1125   1.411   1_455  A
C550        O554   1.371       .  S
O552        H556   0.992       .  S
O554        H555   0.992       .  S
C557       C1035   1.483       .  S
C557       C1138   1.407       .  A
C557        C562   1.413       .  A
C558       C1137   1.407   1_455  A
C558        C559   1.402       .  A
C558        H563   1.083       .  S
C559       C1140   1.405   1_455  A
C559        O564   1.372       .  S
C560       C1139   1.405       .  A
C560        C561   1.399       .  A
C561        C562   1.398       .  A
C561        H565   1.083       .  S
C562        O566   1.371       .  S
O564        H568   0.992       .  S
O566        H567   0.992       .  S
C569        C570   1.407       .  A
C569       C1154   1.413       .  A
C570        C571   1.402       .  A
C570        H575   1.083       .  S
C571        C572   1.405       .  A
C571        O576   1.372       .  S
C572       C1153   1.399       .  A
C573       C1152   1.399   1_455  A
C573        C574   1.398       .  A
C573        H577   1.083       .  S
C574       C1149   1.413       .  A
C574        O578   1.371       .  S
O576        H580   0.992       .  S
O578        H579   0.992       .  S
N581        N582   1.320       .  A
N581        N877   1.315   1_545  A
N581       Mn610   2.200       .  S
N582        C879   1.353   1_545  A
N583        N875   1.315       .  A
N583        N584   1.320       .  A
N583       Mn599   2.201       .  S
N584        C880   1.353       .  A
N585        N873   1.315   1_545  A
N585        N586   1.321       .  A
N585       Mn755   2.203       .  S
N586        C590   1.354   1_545  A
N587        N871   1.315       .  A
N587        N588   1.321       .  A
N587       Mn744   2.202       .  S
N588        C589   1.354       .  A
C589        N872   1.353       .  A
C589        C666   1.479       .  S
C590        N874   1.353       .  A
C590        C947   1.481       .  S
N591        N592   1.321       .  A
N591       Mn621   2.203       .  S
N592        C600   1.355       .  A
N593        N594   1.321       .  A
N593       Mn744   2.203       .  S
N594        C601   1.355       .  A
N595        N596   1.319       .  A
N595       Mn766   2.199       .  S
N597        N598   1.319       .  A
N597       Mn599   2.199       .  S
Mn599       N732   2.202   1_554  S
Mn599       N738   2.203   1_554  S
C601        C714   1.483   1_655  S
N602        N603   1.320       .  A
N602       Mn755   2.203       .  S
N604        N605   1.320       .  A
N604       Mn622   2.202       .  S
N606        N607   1.320       .  A
N606       Mn610   2.199       .  S
N607        C612   1.353       .  A
N608        N609   1.320       .  A
N608       Mn767   2.199       .  S
N609        C611   1.353       .  A
Mn610       N730   2.203       .  S
Mn610       N747   2.203       .  S
C612        C690   1.479       .  S
N613        N614   1.320       .  A
N613        N909   1.315       .  A
N613       Mn766   2.200       .  S
N614        C624   1.353       .  A
N615        N616   1.320       .  A
N615        N907   1.315   1_545  A
N615       Mn767   2.199       .  S
N616        C625   1.353   1_545  A
N617        N905   1.315       .  A
N617        N618   1.321       .  A
N617       Mn621   2.202       .  S
N618        C915   1.353       .  A
N619        N903   1.315   1_545  A
N619        N620   1.321       .  A
N619       Mn622   2.203       .  S
N620        C914   1.354   1_545  A
Mn621       N740   2.199   1_554  S
Mn621       N758   2.200   1_554  S
Mn621      Cl913   2.546       .  S
Mn622       N753   2.199       .  S
Mn622       N760   2.199       .  S
Mn622      Cl768   2.547   1_545  S
Cl623      Mn911   2.546       .  S
Cl623      Mn767   2.547   1_565  S
C624        N910   1.354       .  A
C624        C642   1.479       .  S
C625        N908   1.353       .  A
C625        C923   1.478       .  S
C626        C627   1.360       .  D
C626        C705   1.482       .  S
C626        C717   1.482       .  S
C627        C681   1.486       .  S
C627        C693   1.485       .  S
C628        C629   1.364       .  D
C628        C654   1.486       .  S
C628        C669   1.486       .  S
C629        C630   1.487       .  S
C629        C645   1.487       .  S
C630        C631   1.403       .  A
C630        C925   1.407       .  A
C631        C632   1.401       .  A
C631        H636   1.083       .  S
C632        C633   1.411       .  A
C632        O637   1.371       .  S
C633        C915   1.478       .  S
C633        C924   1.404       .  A
C634        C923   1.404   1_545  A
C634        C635   1.398       .  A
C634        H638   1.084       .  S
C635        C920   1.407       .  A
C635        O639   1.372       .  S
O637        H641   0.992       .  S
O639        H640   0.992       .  S
C642        C933   1.404       .  A
C642        C647   1.410       .  A
C643        C932   1.404   1_545  A
C643        C644   1.402       .  A
C643        H648   1.083       .  S
C644        C935   1.407       .  A
C644        O649   1.372       .  S
C645        C934   1.407       .  A
C645        C646   1.402       .  A
C646        C647   1.398       .  A
C646        H650   1.084       .  S
C647        O651   1.371       .  S
O649        H653   0.992       .  S
O651        H652   0.992       .  S
C654        C655   1.401       .  A
C654        C949   1.406       .  A
C655        C656   1.399       .  A
C655        H660   1.084       .  S
C656        C657   1.411       .  A
C656        O661   1.371       .  S
C657        C880   1.481       .  S
C657        C948   1.405       .  A
C658        C947   1.405   1_545  A
C658        C659   1.402       .  A
C658        H662   1.083       .  S
C659        C944   1.406       .  A
C659        O663   1.372       .  S
O661        H665   0.992       .  S
O663        H664   0.992       .  S
C666        C667   1.405       .  A
C666        C961   1.410       .  A
C667        C668   1.403       .  A
C667        H672   1.083       .  S
C668        C669   1.407       .  A
C668        O673   1.372       .  S
C669        C960   1.401       .  A
C670        C959   1.401   1_545  A
C670        C671   1.398       .  A
C670        H674   1.084       .  S
C671        C956   1.410   1_545  A
C671        O675   1.371       .  S
O673        H677   0.992       .  S
O675        H676   0.992       .  S
C678        C683   1.411       .  A
C679        C680   1.400       .  A
C679        H684   1.084       .  S
C680        O685   1.372       .  S
C681        C682   1.402       .  A
C682        C683   1.399       .  A
C682        H686   1.083       .  S
C683        O687   1.371       .  S
O685        H689   0.992       .  S
O687        H688   0.992       .  S
C690        C691   1.405       .  A
C691        C692   1.399       .  A
C691        H696   1.083       .  S
C692        C693   1.406       .  A
C692        O697   1.372       .  S
C694        C695   1.399       .  A
C694        H698   1.083       .  S
C695        O699   1.371       .  S
O697        H701   0.992       .  S
O699        H700   0.992       .  S
C702        C707   1.413       .  A
C703        C704   1.402       .  A
C703        H708   1.083       .  S
C704        O709   1.372       .  S
C705        C706   1.399       .  A
C706        C707   1.398       .  A
C706        H710   1.083       .  S
C707        O711   1.371       .  S
O709        H713   0.992       .  S
O711        H712   0.992       .  S
C714        C715   1.407   1_455  A
C715        C716   1.402       .  A
C715        H720   1.083       .  S
C716        C717   1.405       .  A
C716        O721   1.372       .  S
C718        C719   1.398       .  A
C718        H722   1.083       .  S
C719        O723   1.371       .  S
O721        H725   0.992       .  S
O723        H724   0.992       .  S
N726        N727   1.320       .  A
N726       N1022   1.315   1_545  A
N726       Mn755   2.200   1_556  S
N727       C1024   1.353   1_545  A
N728       N1020   1.315       .  A
N728        N729   1.320       .  A
N728       Mn744   2.201       .  S
N729       C1025   1.353       .  A
N730       N1018   1.315   1_545  A
N730        N731   1.321       .  A
N731        C735   1.354   1_545  A
N732       N1016   1.315       .  A
N732        N733   1.321       .  A
N733        C734   1.354       .  A
C734       N1017   1.353       .  A
C734        C811   1.479       .  S
C735       N1019   1.353       .  A
C735       C1092   1.481       .  S
N736        N737   1.321       .  A
N736       Mn766   2.203       .  S
N737        C745   1.355       .  A
N738        N739   1.321       .  A
N739        C746   1.355       .  A
N740        N741   1.319       .  A
N742        N743   1.319       .  A
N742       Mn744   2.199       .  S
C746        C859   1.483   1_655  S
N747        N748   1.320       .  A
N749        N750   1.320       .  A
N749       Mn767   2.202   1_556  S
N751        N752   1.320       .  A
N751       Mn755   2.199   1_556  S
N752        C757   1.353       .  A
N753        N754   1.320       .  A
N754        C756   1.353       .  A
C757        C835   1.479       .  S
N758        N759   1.320       .  A
N758       N1054   1.315       .  A
N759        C769   1.353       .  A
N760        N761   1.320       .  A
N760       N1052   1.315   1_545  A
N761        C770   1.353   1_545  A
N762       N1050   1.315       .  A
N762        N763   1.321       .  A
N762       Mn766   2.202       .  S
N763       C1060   1.353       .  A
N764       N1048   1.315   1_545  A
N764        N765   1.321       .  A
N764       Mn767   2.203   1_556  S
N765       C1059   1.354   1_545  A
Mn766     Cl1058   2.546       .  S
Cl768     Mn1056   2.546       .  S
C769       N1055   1.354       .  A
C769        C787   1.479       .  S
C770       N1053   1.353       .  A
C770       C1068   1.478       .  S
C771        C772   1.360       .  D
C771        C850   1.482       .  S
C771        C862   1.482       .  S
C772        C826   1.486       .  S
C772        C838   1.485       .  S
C773        C774   1.364       .  D
C773        C799   1.486       .  S
C773        C814   1.486       .  S
C774        C775   1.487       .  S
C774        C790   1.487       .  S
C775        C776   1.403       .  A
C775       C1070   1.407       .  A
C776        C777   1.401       .  A
C776        H781   1.083       .  S
C777        C778   1.411       .  A
C777        O782   1.371       .  S
C778       C1060   1.478       .  S
C778       C1069   1.404       .  A
C779       C1068   1.404   1_545  A
C779        C780   1.398       .  A
C779        H783   1.084       .  S
C780       C1065   1.407       .  A
C780        O784   1.372       .  S
O782        H786   0.992       .  S
O784        H785   0.992       .  S
C787       C1078   1.404       .  A
C787        C792   1.410       .  A
C788       C1077   1.404   1_545  A
C788        C789   1.402       .  A
C788        H793   1.083       .  S
C789       C1080   1.407       .  A
C789        O794   1.372       .  S
C790       C1079   1.407       .  A
C790        C791   1.402       .  A
C791        C792   1.398       .  A
C791        H795   1.084       .  S
C792        O796   1.371       .  S
O794        H798   0.992       .  S
O796        H797   0.992       .  S
C799        C800   1.401       .  A
C799       C1094   1.406       .  A
C800        C801   1.399       .  A
C800        H805   1.084       .  S
C801        C802   1.411       .  A
C801        O806   1.371       .  S
C802       C1025   1.481       .  S
C802       C1093   1.405       .  A
C803       C1092   1.405   1_545  A
C803        C804   1.402       .  A
C803        H807   1.083       .  S
C804       C1089   1.406       .  A
C804        O808   1.372       .  S
O806        H810   0.992       .  S
O808        H809   0.992       .  S
C811        C812   1.405       .  A
C811       C1106   1.410       .  A
C812        C813   1.403       .  A
C812        H817   1.083       .  S
C813        C814   1.407       .  A
C813        O818   1.372       .  S
C814       C1105   1.401       .  A
C815       C1104   1.401   1_545  A
C815        C816   1.398       .  A
C815        H819   1.084       .  S
C816       C1101   1.410   1_545  A
C816        O820   1.371       .  S
O818        H822   0.992       .  S
O820        H821   0.992       .  S
C823        C828   1.411       .  A
C824        C825   1.400       .  A
C824        H829   1.084       .  S
C825        O830   1.372       .  S
C826        C827   1.402       .  A
C827        C828   1.399       .  A
C827        H831   1.083       .  S
C828        O832   1.371       .  S
O830        H834   0.992       .  S
O832        H833   0.992       .  S
C835        C836   1.405       .  A
C836        C837   1.399       .  A
C836        H841   1.083       .  S
C837        C838   1.406       .  A
C837        O842   1.372       .  S
C839        C840   1.399       .  A
C839        H843   1.083       .  S
C840        O844   1.371       .  S
O842        H846   0.992       .  S
O844        H845   0.992       .  S
C847        C852   1.413       .  A
C848        C849   1.402       .  A
C848        H853   1.083       .  S
C849        O854   1.372       .  S
C850        C851   1.399       .  A
C851        C852   1.398       .  A
C851        H855   1.083       .  S
C852        O856   1.371       .  S
O854        H858   0.992       .  S
O856        H857   0.992       .  S
C859        C860   1.407   1_455  A
C860        C861   1.402       .  A
C860        H865   1.083       .  S
C861        C862   1.405       .  A
C861        O866   1.372       .  S
C863        C864   1.398       .  A
C863        H867   1.083       .  S
C864        O868   1.371       .  S
O866        H870   0.992       .  S
O868        H869   0.992       .  S
N871        N872   1.320       .  A
N871       Mn900   2.200       .  S
N873        N874   1.320       .  A
N873       Mn889   2.201       .  S
N875        N876   1.321       .  A
N875      Mn1045   2.203       .  S
N876        C880   1.354       .  A
N877        N878   1.321       .  A
N877      Mn1034   2.202       .  S
N878        C879   1.354       .  A
C879        C956   1.479       .  S
N881        N882   1.321       .  A
N881       Mn911   2.203       .  S
N882        C890   1.355       .  A
N883        N884   1.321       .  A
N883      Mn1034   2.203       .  S
N884        C891   1.355       .  A
N885        N886   1.319       .  A
N885      Mn1056   2.199       .  S
N887        N888   1.319       .  A
N887       Mn889   2.199       .  S
Mn889      N1022   2.202   1_554  S
Mn889      N1028   2.203   1_554  S
C891       C1004   1.483   1_655  S
N892        N893   1.320       .  A
N892      Mn1045   2.203       .  S
N894        N895   1.320       .  A
N894       Mn912   2.202       .  S
N896        N897   1.320       .  A
N896       Mn900   2.199       .  S
N897        C902   1.353       .  A
N898        N899   1.320       .  A
N898      Mn1057   2.199       .  S
N899        C901   1.353       .  A
Mn900      N1020   2.203       .  S
Mn900      N1037   2.203       .  S
C902        C980   1.479       .  S
N903        N904   1.320       .  A
N903      Mn1056   2.200       .  S
N904        C914   1.353       .  A
N905        N906   1.320       .  A
N905      Mn1057   2.199       .  S
N906        C915   1.353       .  A
N907        N908   1.321       .  A
N907       Mn911   2.202       .  S
N909        N910   1.321       .  A
N909       Mn912   2.203       .  S
Mn911      N1030   2.199   1_554  S
Mn911      N1048   2.200   1_554  S
Mn912      N1043   2.199       .  S
Mn912      N1050   2.199       .  S
Mn912     Cl1058   2.547       .  S
Cl913     Mn1057   2.547       .  S
C914        C932   1.479       .  S
C916        C917   1.360       .  D
C916        C995   1.482       .  S
C916       C1007   1.482       .  S
C917        C971   1.486       .  S
C917        C983   1.485       .  S
C918        C919   1.364       .  D
C918        C944   1.486       .  S
C918        C959   1.486   1_545  S
C919        C920   1.487       .  S
C919        C935   1.487       .  S
C920        C921   1.403   1_545  A
C921        C922   1.401       .  A
C921        H926   1.083       .  S
C922        C923   1.411       .  A
C922        O927   1.371       .  S
C924        C925   1.398       .  A
C924        H928   1.084       .  S
C925        O929   1.372       .  S
O927        H931   0.992       .  S
O929        H930   0.992       .  S
C932        C937   1.410       .  A
C933        C934   1.402       .  A
C933        H938   1.083       .  S
C934        O939   1.372       .  S
C935        C936   1.402   1_545  A
C936        C937   1.398       .  A
C936        H940   1.084       .  S
C937        O941   1.371       .  S
O939        H943   0.992       .  S
O941        H942   0.992       .  S
C944        C945   1.401   1_545  A
C945        C946   1.399       .  A
C945        H950   1.084       .  S
C946        C947   1.411       .  A
C946        O951   1.371       .  S
C948        C949   1.402       .  A
C948        H952   1.083       .  S
C949        O953   1.372       .  S
O951        H955   0.992       .  S
O953        H954   0.992       .  S
C956        C957   1.405       .  A
C957        C958   1.403       .  A
C957        H962   1.083       .  S
C958        C959   1.407       .  A
C958        O963   1.372       .  S
C960        C961   1.398       .  A
C960        H964   1.084       .  S
C961        O965   1.371       .  S
O963        H967   0.992       .  S
O965        H966   0.992       .  S
C968        C973   1.411       .  A
C969        C970   1.400       .  A
C969        H974   1.084       .  S
C970        O975   1.372       .  S
C971        C972   1.402       .  A
C972        C973   1.399       .  A
C972        H976   1.083       .  S
C973        O977   1.371       .  S
O975        H979   0.992       .  S
O977        H978   0.992       .  S
C980        C981   1.405       .  A
C981        C982   1.399       .  A
C981        H986   1.083       .  S
C982        C983   1.406       .  A
C982        O987   1.372       .  S
C984        C985   1.399       .  A
C984        H988   1.083       .  S
C985        O989   1.371       .  S
O987        H991   0.992       .  S
O989        H990   0.992       .  S
C992        C997   1.413       .  A
C993        C994   1.402       .  A
C993        H998   1.083       .  S
C994        O999   1.372       .  S
C995        C996   1.399       .  A
C996        C997   1.398       .  A
C996       H1000   1.083       .  S
C997       O1001   1.371       .  S
O999       H1003   0.992       .  S
O1001      H1002   0.992       .  S
C1004      C1005   1.407   1_455  A
C1005      C1006   1.402       .  A
C1005      H1010   1.083       .  S
C1006      C1007   1.405       .  A
C1006      O1011   1.372       .  S
C1008      C1009   1.398       .  A
C1008      H1012   1.083       .  S
C1009      O1013   1.371       .  S
O1011      H1015   0.992       .  S
O1013      H1014   0.992       .  S
N1016      N1017   1.320       .  A
N1016     Mn1045   2.200   1_556  S
N1018      N1019   1.320       .  A
N1018     Mn1034   2.201       .  S
N1020      N1021   1.321       .  A
N1021      C1025   1.354       .  A
N1022      N1023   1.321       .  A
N1023      C1024   1.354       .  A
C1024      C1101   1.479       .  S
N1026      N1027   1.321       .  A
N1026     Mn1056   2.203       .  S
N1027      C1035   1.355       .  A
N1028      N1029   1.321       .  A
N1029      C1036   1.355       .  A
N1030      N1031   1.319       .  A
N1032      N1033   1.319       .  A
N1032     Mn1034   2.199       .  S
C1036      C1149   1.483   1_655  S
N1037      N1038   1.320       .  A
N1039      N1040   1.320       .  A
N1039     Mn1057   2.202   1_556  S
N1041      N1042   1.320       .  A
N1041     Mn1045   2.199   1_556  S
N1042      C1047   1.353       .  A
N1043      N1044   1.320       .  A
N1044      C1046   1.353       .  A
C1047      C1125   1.479       .  S
N1048      N1049   1.320       .  A
N1049      C1059   1.353       .  A
N1050      N1051   1.320       .  A
N1051      C1060   1.353       .  A
N1052      N1053   1.321       .  A
N1052     Mn1056   2.202       .  S
N1054      N1055   1.321       .  A
N1054     Mn1057   2.203   1_556  S
C1059      C1077   1.479       .  S
C1061      C1062   1.360       .  D
C1061      C1140   1.482       .  S
C1061      C1152   1.482       .  S
C1062      C1116   1.486       .  S
C1062      C1128   1.485       .  S
C1063      C1064   1.364       .  D
C1063      C1089   1.486       .  S
C1063      C1104   1.486   1_545  S
C1064      C1065   1.487       .  S
C1064      C1080   1.487       .  S
C1065      C1066   1.403   1_545  A
C1066      C1067   1.401       .  A
C1066      H1071   1.083       .  S
C1067      C1068   1.411       .  A
C1067      O1072   1.371       .  S
C1069      C1070   1.398       .  A
C1069      H1073   1.084       .  S
C1070      O1074   1.372       .  S
O1072      H1076   0.992       .  S
O1074      H1075   0.992       .  S
C1077      C1082   1.410       .  A
C1078      C1079   1.402       .  A
C1078      H1083   1.083       .  S
C1079      O1084   1.372       .  S
C1080      C1081   1.402   1_545  A
C1081      C1082   1.398       .  A
C1081      H1085   1.084       .  S
C1082      O1086   1.371       .  S
O1084      H1088   0.992       .  S
O1086      H1087   0.992       .  S
C1089      C1090   1.401   1_545  A
C1090      C1091   1.399       .  A
C1090      H1095   1.084       .  S
C1091      C1092   1.411       .  A
C1091      O1096   1.371       .  S
C1093      C1094   1.402       .  A
C1093      H1097   1.083       .  S
C1094      O1098   1.372       .  S
O1096      H1100   0.992       .  S
O1098      H1099   0.992       .  S
C1101      C1102   1.405       .  A
C1102      C1103   1.403       .  A
C1102      H1107   1.083       .  S
C1103      C1104   1.407       .  A
C1103      O1108   1.372       .  S
C1105      C1106   1.398       .  A
C1105      H1109   1.084       .  S
C1106      O1110   1.371       .  S
O1108      H1112   0.992       .  S
O1110      H1111   0.992       .  S
C1113      C1118   1.411       .  A
C1114      C1115   1.400       .  A
C1114      H1119   1.084       .  S
C1115      O1120   1.372       .  S
C1116      C1117   1.402       .  A
C1117      C1118   1.399       .  A
C1117      H1121   1.083       .  S
C1118      O1122   1.371       .  S
O1120      H1124   0.992       .  S
O1122      H1123   0.992       .  S
C1125      C1126   1.405       .  A
C1126      C1127   1.399       .  A
C1126      H1131   1.083       .  S
C1127      C1128   1.406       .  A
C1127      O1132   1.372       .  S
C1129      C1130   1.399       .  A
C1129      H1133   1.083       .  S
C1130      O1134   1.371       .  S
O1132      H1136   0.992       .  S
O1134      H1135   0.992       .  S
C1137      C1142   1.413       .  A
C1138      C1139   1.402       .  A
C1138      H1143   1.083       .  S
C1139      O1144   1.372       .  S
C1140      C1141   1.399       .  A
C1141      C1142   1.398       .  A
C1141      H1145   1.083       .  S
C1142      O1146   1.371       .  S
O1144      H1148   0.992       .  S
O1146      H1147   0.992       .  S
C1149      C1150   1.407   1_455  A
C1150      C1151   1.402       .  A
C1150      H1155   1.083       .  S
C1151      C1152   1.405       .  A
C1151      O1156   1.372       .  S
C1153      C1154   1.398       .  A
C1153      H1157   1.083       .  S
C1154      O1158   1.371       .  S
O1156      H1160   0.992       .  S
O1158      H1159   0.992       .  S
