geometry optimzed in LAMMPS
_audit_creation_date              2020-11-30 
_audit_creation_method            'lammps2cif' 
_symmetry_space_group_name_H-M    'P1' 
_symmetry_Int_Tables_number       1 
_symmetry_cell_setting            triclinic 
loop_ 
_symmetry_equiv_pos_as_xyz 
  x,y,z 
_cell_length_a                    113.00792773 
_cell_length_b                    64.24054407075059 
_cell_length_c                    33.66492566194462 
_cell_angle_alpha                 89.88430096376815 
_cell_angle_beta                  89.96368741300745 
_cell_angle_gamma                 89.95111650344217 
loop_ 
_atom_site_label 
_atom_site_type_symbol 
_atom_site_fract_x 
_atom_site_fract_y 
_atom_site_fract_z 
_atom_site_charge 
O1          O  0.69252681  0.55857625  0.22920351    -0.80700
O2          O  0.68947985  0.46483292  0.18514991    -0.65400
O3          O  0.68119323  0.52126455  0.20887778    -1.12000
C4          C  0.68680653  0.49797115  0.34244945     1.06200
O5          O  0.67653665  0.45551482  0.23014380    -0.78600
O6          O  0.66573894  0.47898099  0.28372482    -0.66100
Ni7        Ni  0.68827789  0.54399943  0.18135047     1.34900
C8          C  0.66127747  0.49701987  0.28135531     0.85000
O9          O  0.68275846  0.49722774  0.13908183    -0.79100
O10         O  0.68437795  0.53195579  0.13098870    -0.89400
C11         C  0.68407920  0.45065976  0.20410398     0.84500
O12         O  0.70402398  0.53314371  0.17664452    -0.67600
O13         O  0.68552925  0.47960612  0.32884577    -0.86900
C14         C  0.70819430  0.51474452  0.17694052     0.85400
C15         C  0.68292000  0.51360894  0.11745849     1.06900
H16         H  0.69674244  0.48979691  0.25563661     0.38700
O17         O  0.68831988  0.49097615  0.25122638    -1.09500
O18         O  0.66723285  0.51323555  0.27304320    -0.66200
Ni19       Ni  0.68389046  0.51859091  0.26506743     1.26300
O20         O  0.70210206  0.49881926  0.18605198    -0.66400
O21         O  0.68656145  0.51447367  0.32111482    -0.78700
C22         C  0.68599416  0.56180776  0.25933362     0.84700
O23         O  0.68025735  0.54713077  0.27571171    -0.65900
Ni24       Ni  0.68128606  0.46819500  0.27855453     1.27400
Ni25       Ni  0.68555133  0.49346049  0.19506497     1.26100
H26         H  0.67277836  0.52251223  0.20435020     0.39300
O27         O  0.69393234  0.55723882  0.72942474    -0.80700
O28         O  0.69127808  0.46345273  0.68653974    -0.65400
O29         O  0.68284619  0.52005960  0.70767325    -1.12000
C30         C  0.68634985  0.49738898  0.84245117     1.06200
O31         O  0.67732335  0.45478600  0.72856790    -0.78600
O32         O  0.66599909  0.47843954  0.78086506    -0.66100
Ni33       Ni  0.69052272  0.54254119  0.68122602     1.34900
C34         C  0.66157151  0.49643340  0.77705181     0.85000
O35         O  0.68504392  0.49559776  0.63896680    -0.79100
O36         O  0.68746204  0.53017603  0.63068228    -0.89400
C37         C  0.68507927  0.44959835  0.70340073     0.84500
O38         O  0.70627618  0.53164031  0.68031897    -0.67600
O39         O  0.68523883  0.47893074  0.82892957    -0.86900
C40         C  0.71029765  0.51316790  0.68076103     0.85400
C41         C  0.68567360  0.51190569  0.61728858     1.06900
H42         H  0.69759345  0.48867367  0.75750910     0.38700
O43         O  0.68925062  0.48993895  0.75166309    -1.09500
O44         O  0.66772650  0.51249903  0.76906877    -0.66200
Ni45       Ni  0.68460866  0.51760024  0.76421379     1.26300
O46         O  0.70394580  0.49730120  0.68804819    -0.66400
O47         O  0.68641569  0.51375577  0.82072372    -0.78700
C48         C  0.68667118  0.56073555  0.75743624     0.84700
O49         O  0.68083962  0.54612678  0.77354037    -0.65900
Ni50       Ni  0.68157823  0.46745326  0.77786493     1.27400
Ni51       Ni  0.68728549  0.49214594  0.69520030     1.26100
H52         H  0.67452831  0.52143480  0.70156287     0.39300
O53         O  0.54941462  0.55775264  0.39293154    -0.80700
O54         O  0.55115141  0.46446613  0.43808787    -0.65400
O55         O  0.56021184  0.52066167  0.41784067    -1.12000
C56         C  0.55710893  0.49866131  0.28315084     1.06200
O57         O  0.56515693  0.45511071  0.39626806    -0.78600
O58         O  0.57651777  0.47837207  0.34329915    -0.66100
Ni59       Ni  0.55268866  0.54360082  0.44261347     1.34900
C60         C  0.58139353  0.49585050  0.34887630     0.85000
O61         O  0.55710585  0.49653417  0.48604921    -0.79100
O62         O  0.55566156  0.53141328  0.49385992    -0.89400
C63         C  0.55776627  0.45059126  0.42317698     0.84500
O64         O  0.53683931  0.53326280  0.44452046    -0.67600
O65         O  0.55719304  0.48004897  0.29646630    -0.86900
C66         C  0.53250392  0.51503293  0.44378037     0.85400
C67         C  0.55687232  0.51295361  0.50751181     1.06900
H68         H  0.54530325  0.49058785  0.36684699     0.38700
O69         O  0.55362743  0.49111405  0.37330831    -1.09500
O70         O  0.57570601  0.51209939  0.35860927    -0.66200
Ni71       Ni  0.55903094  0.51842667  0.36152607     1.26300
O72         O  0.53857480  0.49888537  0.43574953    -0.66400
O73         O  0.55777375  0.51490914  0.30495422    -0.78700
C74         C  0.55703343  0.56107116  0.36574492     0.84700
O75         O  0.56364547  0.54658974  0.35324012    -0.65900
Ni76       Ni  0.56082525  0.46821527  0.34725459     1.27400
Ni77       Ni  0.55525826  0.49307863  0.42973976     1.26100
H78         H  0.56847810  0.52160082  0.42496692     0.39300
O79         O  0.55185441  0.56055677  0.90239759    -0.80700
O80         O  0.55328993  0.46551392  0.93848452    -0.65400
O81         O  0.56237081  0.52163569  0.91783451    -1.12000
C82         C  0.55506553  0.50249495  0.78317635     1.06200
O83         O  0.56468097  0.45472790  0.88951659    -0.78600
O84         O  0.57601448  0.47965116  0.83910508    -0.66100
Ni85       Ni  0.55584178  0.54399877  0.94811988     1.34900
C86         C  0.58102106  0.49723718  0.84222790     0.85000
O87         O  0.56138894  0.49573294  0.98531109    -0.79100
O88         O  0.55946523  0.53005143  0.99693688    -0.89400
C89         C  0.55806561  0.45097536  0.91894543     0.84500
O90         O  0.53985295  0.53441477  0.95145364    -0.67600
O91         O  0.55600979  0.48376475  0.79508315    -0.86900
C92         C  0.53550013  0.51621720  0.95091502     0.85400
C93         C  0.56121821  0.51141766  0.00847687     1.06900
H94         H  0.54555340  0.49249178  0.87098165     0.38700
O95         O  0.55404971  0.49286710  0.87411790    -1.09500
O96         O  0.57549927  0.51384334  0.85143910    -0.66200
Ni97       Ni  0.55903274  0.52047541  0.86198758     1.26300
O98         O  0.54142781  0.50008702  0.94185077    -0.66400
O99         O  0.55568715  0.51832663  0.80598454    -0.78700
C100        C  0.55790240  0.56355345  0.87109816     0.84700
O101        O  0.56322842  0.54881795  0.85351078    -0.65900
Ni102      Ni  0.56010609  0.47028028  0.84369154     1.27400
Ni103      Ni  0.55767522  0.49381683  0.92978808     1.26100
H104        H  0.57084344  0.52235958  0.92145920     0.39300
O105        O  0.69787264  0.70027137  0.38768705    -0.80700
O106        O  0.69694521  0.79473358  0.42810895    -0.65400
O107        O  0.68738521  0.73927380  0.40371115    -1.12000
C108        C  0.69085948  0.75756306  0.27045825     1.06200
O109        O  0.68957050  0.81013116  0.37398537    -0.78600
O110        O  0.67287112  0.78194781  0.34892873    -0.66100
Ni111      Ni  0.69308015  0.71607455  0.43360339     1.34900
C112        C  0.66828680  0.76410709  0.34311431     0.85000
O113        O  0.68863663  0.76391733  0.47245044    -0.79100
O114        O  0.68847724  0.72923397  0.48215869    -0.89400
C115        C  0.69427408  0.81081569  0.40813868     0.84500
O116        O  0.70904221  0.72523522  0.44159063    -0.67600
O117        O  0.68672422  0.77458411  0.28355786    -0.86900
C118        C  0.71388545  0.74308396  0.44039639     0.85400
C119        C  0.68764263  0.74789752  0.49461676     1.06900
H120        H  0.70439526  0.76982634  0.35706165     0.38700
O121        O  0.69595586  0.76864724  0.36098056    -1.09500
O122        O  0.67453050  0.74775701  0.33774904    -0.66200
Ni123      Ni  0.69106095  0.74087738  0.34841540     1.26300
O124        O  0.70853693  0.75947545  0.42886810    -0.66400
O125        O  0.69480831  0.74335695  0.29314865    -0.78700
C126        C  0.69189552  0.69750501  0.35616995     0.84700
O127        O  0.68682039  0.71257490  0.33869988    -0.65900
Ni128      Ni  0.68825634  0.79039122  0.33167784     1.27400
Ni129      Ni  0.69234638  0.76672594  0.41699197     1.26100
H130        H  0.67887342  0.73897222  0.40678303     0.39300
O131        O  0.69648311  0.69919401  0.88267524    -0.80700
O132        O  0.69336094  0.79358581  0.92547531    -0.65400
O133        O  0.68548228  0.73672298  0.90367565    -1.12000
C134        C  0.69064563  0.75982311  0.76926069     1.06200
O135        O  0.68011203  0.80217815  0.88091534    -0.78600
O136        O  0.66965595  0.77869940  0.82555862    -0.66100
Ni137      Ni  0.69311722  0.71428264  0.93075742     1.34900
C138        C  0.66490203  0.76099432  0.83016552     0.85000
O139        O  0.68707499  0.76123256  0.97261024    -0.79100
O140        O  0.69013998  0.72685149  0.98145842    -0.89400
C141        C  0.68764385  0.80749912  0.90667800     0.84500
O142        O  0.70889656  0.72510192  0.93166696    -0.67600
O143        O  0.68994881  0.77828939  0.78282520    -0.86900
C144        C  0.71281457  0.74363219  0.93213564     0.85400
C145        C  0.68806420  0.74508562  0.99462376     1.06900
H146        H  0.70061855  0.76786018  0.85540569     0.38700
O147        O  0.69220467  0.76688362  0.86024660    -1.09500
O148        O  0.67070308  0.74491612  0.84105603    -0.66200
Ni149      Ni  0.68756982  0.73936006  0.84712150     1.26300
O150        O  0.70637723  0.75951854  0.92514132    -0.66400
O151        O  0.68975257  0.74337193  0.79062971    -0.78700
C152        C  0.68947823  0.69607879  0.85372177     0.84700
O153        O  0.68384517  0.71088214  0.83735158    -0.65900
Ni154      Ni  0.68519328  0.78959106  0.83267303     1.27400
Ni155      Ni  0.68970763  0.76469604  0.91654426     1.26100
H156        H  0.67712031  0.73523584  0.90917685     0.39300
O157        O  0.55489292  0.70055082  0.23693521    -0.80700
O158        O  0.55920583  0.79428946  0.19596976    -0.65400
O159        O  0.56690600  0.73723408  0.21655652    -1.12000
C160        C  0.56141944  0.75727437  0.35173074     1.06200
O161        O  0.57133496  0.80380435  0.24380214    -0.78600
O162        O  0.58215790  0.77840730  0.29537380    -0.66100
Ni163      Ni  0.55943191  0.71507841  0.18899690     1.34900
C164        C  0.58700267  0.76078988  0.29035679     0.85000
O165        O  0.56589599  0.76233047  0.14873753    -0.79100
O166        O  0.56352598  0.72773823  0.13922091    -0.89400
C167        C  0.56461797  0.80843633  0.21502299     0.84500
O168        O  0.54381304  0.72619821  0.18439400    -0.67600
O169        O  0.56209070  0.77597059  0.33929922    -0.86900
C170        C  0.53984084  0.74466654  0.18467149     0.85400
C171        C  0.56551452  0.74617237  0.12660107     1.06900
H172        H  0.55133528  0.76732844  0.26492198     0.38700
O173        O  0.55978702  0.76660200  0.26075828    -1.09500
O174        O  0.58130395  0.74461488  0.27974977    -0.66200
Ni175      Ni  0.56458429  0.73873715  0.27265759     1.26300
O176        O  0.54612401  0.76039567  0.19393407    -0.66400
O177        O  0.56215009  0.74129831  0.32924315    -0.78700
C178        C  0.56186888  0.69616097  0.26535643     0.84700
O179        O  0.56851501  0.70999005  0.28036487    -0.65900
Ni180      Ni  0.56645618  0.78891379  0.29030523     1.27400
Ni181      Ni  0.56274157  0.76528972  0.20456868     1.26100
H182        H  0.57528434  0.73579551  0.21135146     0.39300
O183        O  0.55286579  0.70098653  0.73778521    -0.80700
O184        O  0.55590442  0.79518382  0.69274119    -0.65400
O185        O  0.56388378  0.73903743  0.71897884    -1.12000
C186        C  0.56188212  0.75828776  0.85156425     1.06200
O187        O  0.56134739  0.81065847  0.74925535    -0.78600
O188        O  0.57890554  0.78225489  0.76928238    -0.66100
Ni189      Ni  0.55714851  0.71621302  0.69065531     1.34900
C190        C  0.58353169  0.76448267  0.77612112     0.85000
O191        O  0.56351899  0.76318756  0.64966139    -0.79100
O192        O  0.56105030  0.72874711  0.64063222    -0.89400
C193        C  0.55754564  0.81126506  0.71389890     0.84500
O194        O  0.54132203  0.72647452  0.68640881    -0.67600
O195        O  0.56662016  0.77451939  0.83736411    -0.86900
C196        C  0.53716355  0.74483529  0.68507756     0.85400
C197        C  0.56315753  0.74700991  0.62767936     1.06900
H198        H  0.54749188  0.77070389  0.76479249     0.38700
O199        O  0.55592591  0.76922553  0.76101061    -1.09500
O200        O  0.57727453  0.74826335  0.78323485    -0.66200
Ni201      Ni  0.56057719  0.74147869  0.77437772     1.26300
O202        O  0.54327440  0.76098746  0.69277373    -0.66400
O203        O  0.55712027  0.74460304  0.82971403    -0.78700
C204        C  0.55892286  0.69835841  0.76915825     0.84700
O205        O  0.56454127  0.71319192  0.78520740    -0.65900
Ni206      Ni  0.56389663  0.79062184  0.79018139     1.27400
Ni207      Ni  0.55966847  0.76679467  0.70494687     1.26100
H208        H  0.57233093  0.73779749  0.71534622     0.39300
O209        O  0.70009681  0.05915643  0.47983472    -0.80700
O210        O  0.69611666  0.96604417  0.43488486    -0.65400
O211        O  0.68836641  0.02309696  0.45452410    -1.12000
C212        C  0.69071267  0.00192335  0.59028874     1.06200
O213        O  0.68261082  0.95744214  0.47882396    -0.78600
O214        O  0.67120934  0.98178982  0.52972637    -0.66100
Ni215      Ni  0.69676294  0.04526520  0.43026360     1.34900
C216        C  0.66655621  0.99940331  0.52311665     0.85000
O217        O  0.69058113  0.99866503  0.38652692    -0.79100
O218        O  0.69391582  0.03319405  0.37912345    -0.89400
C219        C  0.69017702  0.95220695  0.45304033     0.84500
O220        O  0.71229016  0.03368990  0.43032102    -0.67600
O221        O  0.69050764  0.98324370  0.57755131    -0.86900
C222        C  0.71603374  0.01508289  0.42940494     0.85400
C223        C  0.69175832  0.01508505  0.36522714     1.06900
H224        H  0.70265201  0.99246618  0.50591437     0.38700
O225        O  0.69431627  0.99331164  0.49972601    -1.09500
O226        O  0.67249665  0.01540354  0.51322475    -0.66200
Ni227      Ni  0.68930433  0.02103031  0.51092011     1.26300
O228        O  0.70941612  0.99940154  0.43579956    -0.66400
O229        O  0.69027379  0.01797061  0.56781399    -0.78700
C230        C  0.69237466  0.06335735  0.50606892     0.84700
O231        O  0.68522519  0.04956692  0.51825698    -0.65900
Ni232      Ni  0.68686370  0.97099801  0.52717875     1.27400
Ni233      Ni  0.69257906  0.99505876  0.44291928     1.26100
H234        H  0.68017576  0.02487504  0.44703523     0.39300
O235        O  0.69768869  0.06010003  0.97237020    -0.80700
O236        O  0.69451766  0.96508377  0.93122630    -0.65400
O237        O  0.68662144  0.02153897  0.95672574    -1.12000
C238        C  0.69103026  0.00280508  0.08949861     1.06200
O239        O  0.68870948  0.95023727  0.98799538    -0.78600
O240        O  0.67224392  0.97911890  0.01163642    -0.66100
Ni241      Ni  0.69296330  0.04422050  0.92656504     1.34900
C242        C  0.66774028  0.99685926  0.01901201     0.85000
O243        O  0.68654616  0.99681026  0.88803390    -0.79100
O244        O  0.68855656  0.03123142  0.87753450    -0.89400
C245        C  0.69242762  0.94916744  0.95259077     0.84500
O246        O  0.70880290  0.03402682  0.92084245    -0.67600
O247        O  0.68594997  0.98664461  0.07648634    -0.86900
C248        C  0.71306679  0.01570939  0.92020499     0.85400
C249        C  0.68655152  0.01280159  0.86546279     1.06900
H250        H  0.70355073  0.99012337  0.00138144     0.38700
O251        O  0.69508530  0.99163196  0.99854252    -1.09500
O252        O  0.67407697  0.01316070  0.02404590    -0.66200
Ni253      Ni  0.69065790  0.01957100  0.01173633     1.26300
O254        O  0.70709310  0.99955935  0.92919636    -0.66400
O255        O  0.69501191  0.01684286  0.06657688    -0.78700
C256        C  0.69213500  0.06277920  0.00477387     0.84700
O257        O  0.68685359  0.04794391  0.02218256    -0.65900
Ni258      Ni  0.68746439  0.97040577  0.02918240     1.27400
Ni259      Ni  0.69082056  0.99365010  0.94297816     1.26100
H260        H  0.67812610  0.02264451  0.95433579     0.39300
O261        O  0.55688260  0.05947744  0.13435193    -0.80700
O262        O  0.56029458  0.96520945  0.17564597    -0.65400
O263        O  0.56838435  0.02165936  0.15123813    -1.12000
C264        C  0.56077544  0.00151104  0.01745174     1.06200
O265        O  0.57034028  0.95306968  0.12417425    -0.78600
O266        O  0.58208269  0.97899115  0.07562523    -0.66100
Ni267      Ni  0.56191102  0.04435056  0.18058855     1.34900
C268        C  0.58680540  0.99688773  0.07751707     0.85000
O269        O  0.56823788  0.99701780  0.22031762    -0.79100
O270        O  0.56646553  0.03164286  0.22958248    -0.89400
C271        C  0.56436796  0.95010363  0.15553042     0.84500
O272        O  0.54618589  0.03407099  0.18735285    -0.67600
O273        O  0.56236638  0.98294417  0.02946971    -0.86900
C274        C  0.54201900  0.01574546  0.18785183     0.85400
C275        C  0.56821535  0.01321514  0.24235481     1.06900
H276        H  0.55156692  0.99126538  0.10733655     0.38700
O277        O  0.56008055  0.99199399  0.10953996    -1.09500
O278        O  0.58102296  0.01347894  0.08481310    -0.66200
Ni279      Ni  0.56460918  0.01979660  0.09591346     1.26300
O280        O  0.54798708  0.99970130  0.17840091    -0.66400
O281        O  0.56086237  0.01728012  0.04036223    -0.78700
C282        C  0.56278776  0.06274016  0.10291291     0.84700
O283        O  0.56844256  0.04823156  0.08584842    -0.65900
Ni284      Ni  0.56614570  0.96941317  0.07864778     1.27400
Ni285      Ni  0.56419701  0.99380905  0.16502537     1.26100
H286        H  0.57687002  0.02276989  0.15404865     0.39300
O287        O  0.55266167  0.05783248  0.62674514    -0.80700
O288        O  0.55608170  0.96536255  0.67191655    -0.65400
O289        O  0.56456032  0.02171217  0.65063724    -1.12000
C290        C  0.56093639  0.99982550  0.51581936     1.06200
O291        O  0.56932066  0.95540829  0.62807521    -0.78600
O292        O  0.58107392  0.97979444  0.57719674    -0.66100
Ni293      Ni  0.55671267  0.04421546  0.67623637     1.34900
C294        C  0.58571028  0.99764763  0.58124736     0.85000
O295        O  0.56193274  0.99761098  0.71936124    -0.79100
O296        O  0.56030010  0.03242308  0.72749615    -0.89400
C297        C  0.56161423  0.95099911  0.65402065     0.84500
O298        O  0.54109125  0.03300598  0.67982704    -0.67600
O299        O  0.56178364  0.98129938  0.52914849    -0.86900
C300        C  0.53707861  0.01460288  0.67795873     0.85400
C301        C  0.56158782  0.01395269  0.74106291     1.06900
H302        H  0.54980925  0.99091185  0.60053688     0.38700
O303        O  0.55815914  0.99181218  0.60644016    -1.09500
O304        O  0.57974933  0.01390633  0.58931922    -0.66200
Ni305      Ni  0.56295966  0.01945106  0.59422786     1.26300
O306        O  0.54338294  0.99896317  0.66884414    -0.66400
O307        O  0.56121130  0.01610034  0.53760729    -0.78700
C308        C  0.56006757  0.06184461  0.59932248     0.84700
O309        O  0.56689486  0.04789222  0.58588932    -0.65900
Ni310      Ni  0.56536785  0.96916974  0.57956762     1.27400
Ni311      Ni  0.56006231  0.99394526  0.66297783     1.26100
H312        H  0.57285738  0.02307866  0.65703588     0.39300
O313        O  0.69681964  0.19960285  0.13993709    -0.80700
O314        O  0.69425120  0.29451786  0.18105693    -0.65400
O315        O  0.68619754  0.23819258  0.15737015    -1.12000
C316        C  0.69387656  0.26002878  0.02374774     1.06200
O317        O  0.68294417  0.30556867  0.13203179    -0.78600
O318        O  0.67219188  0.28088671  0.07984550    -0.66100
Ni319      Ni  0.69326855  0.21582562  0.18633155     1.34900
C320        C  0.66730579  0.26317546  0.08297057     0.85000
O321        O  0.68655903  0.26317746  0.22638103    -0.79100
O322        O  0.69016768  0.22916153  0.23606608    -0.89400
C323        C  0.68942995  0.30917361  0.16182251     0.84500
O324        O  0.70917149  0.22604824  0.18717808    -0.67600
O325        O  0.69260890  0.27851994  0.03654676    -0.86900
C326        C  0.71312119  0.24450692  0.18990148     0.85400
C327        C  0.68776013  0.24731521  0.24886214     1.06900
H328        H  0.70268200  0.26880542  0.11262325     0.38700
O329        O  0.69418062  0.26808176  0.11539450    -1.09500
O330        O  0.67299488  0.24665049  0.09162061    -0.66200
Ni331      Ni  0.68956396  0.24050083  0.10152280     1.26300
O332        O  0.70676776  0.26055725  0.18382260    -0.66400
O333        O  0.69303824  0.24383238  0.04567109    -0.78700
C334        C  0.69092349  0.19715453  0.10820136     0.84700
O335        O  0.68568692  0.21215921  0.09104790    -0.65900
Ni336      Ni  0.68796117  0.29092165  0.08567077     1.27400
Ni337      Ni  0.69040192  0.26610445  0.17097058     1.26100
H338        H  0.67773510  0.23685515  0.16099277     0.39300
O339        O  0.69981988  0.20196039  0.63497374    -0.80700
O340        O  0.69737046  0.29376649  0.67951651    -0.65400
O341        O  0.68809116  0.23802645  0.65868759    -1.12000
C342        C  0.69097680  0.26120369  0.52437638     1.06200
O343        O  0.68281902  0.30347219  0.64004063    -0.78600
O344        O  0.67090454  0.28010637  0.58810377    -0.66100
Ni345      Ni  0.69537106  0.21510262  0.68435004     1.34900
C346        C  0.66645216  0.26210464  0.59139939     0.85000
O347        O  0.69174742  0.26166257  0.72749827    -0.79100
O348        O  0.69135067  0.22671874  0.73521276    -0.89400
C349        C  0.69053837  0.30770953  0.66608701     0.84500
O350        O  0.71108587  0.22560457  0.69041361    -0.67600
O351        O  0.68988391  0.27953130  0.53857069    -0.86900
C352        C  0.71566351  0.24354369  0.68684238     0.85400
C353        C  0.69113193  0.24526631  0.74898879     1.06900
H354        H  0.70260724  0.26909938  0.60749408     0.38700
O355        O  0.69434252  0.26798341  0.61453401    -1.09500
O356        O  0.67259558  0.24588197  0.59833370    -0.66200
Ni357      Ni  0.68945723  0.24051947  0.60220685     1.26300
O358        O  0.70985909  0.25941401  0.67521242    -0.66400
O359        O  0.69096726  0.24457414  0.54550505    -0.78700
C360        C  0.69267075  0.19810763  0.60674318     0.84700
O361        O  0.68568158  0.21196093  0.59361685    -0.65900
Ni362      Ni  0.68658615  0.29079355  0.59007259     1.27400
Ni363      Ni  0.69313730  0.26541164  0.67097264     1.26100
H364        H  0.67978106  0.23723246  0.66545298     0.39300
O365        O  0.55339573  0.20222112  0.47810266    -0.80700
O366        O  0.55604080  0.29438619  0.43336587    -0.65400
O367        O  0.56507371  0.23813461  0.45368803    -1.12000
C368        C  0.56119737  0.26030740  0.58821241     1.06200
O369        O  0.57027122  0.30260011  0.47465805    -0.78600
O370        O  0.58133940  0.28009324  0.52915267    -0.66100
Ni371      Ni  0.55744229  0.21546916  0.42857069     1.34900
C372        C  0.58622664  0.26257186  0.52413606     0.85000
O373        O  0.56191497  0.26218165  0.38504802    -0.79100
O374        O  0.56105170  0.22723032  0.37752503    -0.89400
C375        C  0.56253470  0.30800722  0.44960155     0.84500
O376        O  0.54169051  0.22608792  0.42490919    -0.67600
O377        O  0.56170813  0.27891020  0.57485526    -0.86900
C378        C  0.53735701  0.24425196  0.42733672     0.85400
C379        C  0.56204966  0.24570182  0.36369783     1.06900
H380        H  0.55021136  0.26836709  0.50454027     0.38700
O381        O  0.55853903  0.26766737  0.49811187    -1.09500
O382        O  0.58051321  0.24629918  0.51428533    -0.66200
Ni383      Ni  0.56369477  0.24030768  0.51012881     1.26300
O384        O  0.54346342  0.26017380  0.43624231    -0.66400
O385        O  0.56203123  0.24396261  0.56663768    -0.78700
C386        C  0.56076518  0.19799436  0.50544869     0.84700
O387        O  0.56777691  0.21176956  0.51854977    -0.65900
Ni388      Ni  0.56572098  0.29042004  0.52410053     1.27400
Ni389      Ni  0.56015975  0.26572729  0.44156323     1.26100
H390        H  0.57336643  0.23708587  0.44687164     0.39300
O391        O  0.55466671  0.20096814  0.97356654    -0.80700
O392        O  0.55839208  0.29562410  0.93291585    -0.65400
O393        O  0.56579278  0.23860691  0.95377959    -1.12000
C394        C  0.56009978  0.26026089  0.08853218     1.06200
O395        O  0.57133316  0.30344168  0.97892993    -0.78600
O396        O  0.58125950  0.27978170  0.03397462    -0.66100
Ni397      Ni  0.55814406  0.21658423  0.92614530     1.34900
C398        C  0.58603378  0.26224613  0.02778767     0.85000
O399        O  0.56466977  0.26383693  0.88562390    -0.79100
O400        O  0.56111709  0.22971391  0.87591502    -0.89400
C401        C  0.56413169  0.30911683  0.95241709     0.84500
O402        O  0.54245509  0.22762014  0.92627595    -0.67600
O403        O  0.56065339  0.27888879  0.07551736    -0.86900
C404        C  0.53861248  0.24617714  0.92507116     0.85400
C405        C  0.56336421  0.24799586  0.86324663     1.06900
H406        H  0.55045681  0.26934369  0.00181351     0.38700
O407        O  0.55889758  0.26839197  0.99754312    -1.09500
O408        O  0.58024546  0.24632636  0.01646814    -0.66200
Ni409      Ni  0.56347610  0.24078093  0.01015944     1.26300
O410        O  0.54511838  0.26203441  0.93128749    -0.66400
O411        O  0.56115969  0.24411615  0.06664119    -0.78700
C412        C  0.56118578  0.19789473  0.00374787     0.84700
O413        O  0.56716286  0.21235204  0.01956169    -0.65900
Ni414      Ni  0.56576724  0.29068771  0.02637023     1.27400
Ni415      Ni  0.56176576  0.26672860  0.94140695     1.26100
H416        H  0.57415464  0.23699268  0.94852009     0.39300
O417        O  0.92855170  0.55651748  0.37089629    -0.80700
O418        O  0.93173669  0.46193438  0.41022110    -0.65400
O419        O  0.93955038  0.51877500  0.38882318    -1.12000
C420        C  0.93284244  0.49825112  0.25454054     1.06200
O421        O  0.94365942  0.45135043  0.36198442    -0.78600
O422        O  0.95445380  0.47719315  0.30873418    -0.66100
Ni423      Ni  0.93228870  0.54098782  0.41760295     1.34900
C424        C  0.95888900  0.49536012  0.31034473     0.85000
O425        O  0.93800715  0.49353654  0.45758848    -0.79100
O426        O  0.93526321  0.52781017  0.46750500    -0.89400
C427        C  0.93746002  0.44760178  0.39270784     0.84500
O428        O  0.91661983  0.53050927  0.41682836    -0.67600
O429        O  0.93408176  0.47957815  0.26672192    -0.86900
C430        C  0.91223973  0.51239832  0.41524125     0.85400
C431        C  0.93715706  0.50944872  0.48013988     1.06900
H432        H  0.92373846  0.48822811  0.34128555     0.38700
O433        O  0.93218882  0.48915185  0.34527307    -1.09500
O434        O  0.95308206  0.51129023  0.32177021    -0.66200
Ni435      Ni  0.93656665  0.51707759  0.33265875     1.26300
O436        O  0.91841700  0.49600207  0.41015262    -0.66400
O437        O  0.93332751  0.51424391  0.27696058    -0.78700
C438        C  0.93548696  0.56039281  0.34240426     0.84700
O439        O  0.94052221  0.54579779  0.32343175    -0.65900
Ni440      Ni  0.93872196  0.46666084  0.31564584     1.27400
Ni441      Ni  0.93515717  0.49074683  0.40133655     1.26100
H442        H  0.94797902  0.51999831  0.39297925     0.39300
O443        O  0.92654340  0.55617427  0.87011145    -0.80700
O444        O  0.92962889  0.46415604  0.91274080    -0.65400
O445        O  0.93828546  0.52008941  0.88954128    -1.12000
C446        C  0.93336138  0.49824081  0.75603589     1.06200
O447        O  0.94273181  0.45300873  0.86877932    -0.78600
O448        O  0.95424164  0.47822132  0.81779818    -0.66100
Ni449      Ni  0.93158552  0.54286342  0.91796337     1.34900
C450        C  0.95830181  0.49658594  0.81642937     0.85000
O451        O  0.93614339  0.49619177  0.95867157    -0.79100
O452        O  0.93624574  0.53099655  0.96769666    -0.89400
C453        C  0.93621724  0.44991560  0.89898749     0.84500
O454        O  0.91595780  0.53235920  0.92550250    -0.67600
O455        O  0.93520941  0.47991675  0.76949955    -0.86900
C456        C  0.91122442  0.51458211  0.92169551     0.85400
C457        C  0.93690417  0.51235844  0.98057532     1.06900
H458        H  0.92270541  0.48868709  0.84181219     0.38700
O459        O  0.93108777  0.49009762  0.84679105    -1.09500
O460        O  0.95203792  0.51267375  0.82333960    -0.66200
Ni461      Ni  0.93540791  0.51793671  0.83347612     1.26300
O462        O  0.91690832  0.49852635  0.91036981    -0.66400
O463        O  0.93246316  0.51446340  0.77775460    -0.78700
C464        C  0.93390355  0.56081060  0.84318839     0.84700
O465        O  0.93916739  0.54655493  0.82404786    -0.65900
Ni466      Ni  0.93859014  0.46751364  0.82032299     1.27400
Ni467      Ni  0.93355858  0.49257993  0.90275024     1.26100
H468        H  0.94673154  0.52088584  0.89369674     0.39300
O469        O  0.80802475  0.55868137  0.00837390    -0.80700
O470        O  0.81280062  0.46116918  0.97572363    -0.65400
O471        O  0.80264516  0.51687855  0.99663521    -1.12000
C472        C  0.80863948  0.49616619  0.13138998     1.06200
O473        O  0.80074249  0.44877621  0.02168075    -0.78600
O474        O  0.78790787  0.47398495  0.06972617    -0.66100
Ni475      Ni  0.81041334  0.53859339  0.96757082     1.34900
C476        C  0.78345408  0.49214099  0.06991643     0.85000
O477        O  0.80471086  0.49147498  0.92898291    -0.79100
O478        O  0.81307350  0.52244774  0.92072467    -0.89400
C479        C  0.80770176  0.44599282  0.99257158     0.84500
O480        O  0.82558311  0.53093945  0.98783151    -0.67600
O481        O  0.80685211  0.47777759  0.11870288    -0.86900
C482        C  0.83045753  0.51334076  0.98183708     0.85400
C483        C  0.80886849  0.50570446  0.90687468     1.06900
H484        H  0.81920705  0.48676784  0.04506421     0.38700
O485        O  0.81077475  0.48753758  0.04053389    -1.09500
O486        O  0.78944625  0.50855217  0.06317814    -0.66200
Ni487      Ni  0.80585804  0.51516058  0.05309611     1.26300
O488        O  0.82447183  0.49673396  0.97614177    -0.66400
O489        O  0.80912647  0.51219968  0.10897271    -0.78700
C490        C  0.80372177  0.55949832  0.04305186     0.84700
O491        O  0.80149628  0.54347398  0.06390048    -0.65900
Ni492      Ni  0.80397140  0.46461104  0.06875375     1.27400
Ni493      Ni  0.80791744  0.48920074  0.98472482     1.26100
H494        H  0.79422562  0.51782810  0.99190728     0.39300
O495        O  0.81387155  0.55570493  0.51945436    -0.80700
O496        O  0.81400190  0.46275629  0.47237365    -0.65400
O497        O  0.80388675  0.51755067  0.49876577    -1.12000
C498        C  0.81016828  0.49379801  0.63123900     1.06200
O499        O  0.80219281  0.44901560  0.51789228    -0.78600
O500        O  0.78950331  0.47265206  0.56972708    -0.66100
Ni501      Ni  0.81008848  0.54122228  0.47139699     1.34900
C502        C  0.78495225  0.49072932  0.57086611     0.85000
O503        O  0.80635741  0.49436585  0.42813747    -0.79100
O504        O  0.80678398  0.52913722  0.42056627    -0.89400
C505        C  0.80895758  0.44717502  0.48800787     0.84500
O506        O  0.82616072  0.53240728  0.46816043    -0.67600
O507        O  0.80874999  0.47564415  0.61692232    -0.86900
C508        C  0.83118398  0.51475288  0.46973782     0.85400
C509        C  0.80595529  0.51075087  0.40673314     1.06900
H510        H  0.82053165  0.48683787  0.54420211     0.38700
O511        O  0.81209275  0.48744218  0.53978673    -1.09500
O512        O  0.79074283  0.50732777  0.56409513    -0.66200
Ni513      Ni  0.80700380  0.51465105  0.55468011     1.26300
O514        O  0.82564682  0.49786340  0.47623407    -0.66400
O515        O  0.81022732  0.51047081  0.61040361    -0.78700
C516        C  0.80708544  0.55819529  0.54901653     0.84700
O517        O  0.80229248  0.54276327  0.56627023    -0.65900
Ni518      Ni  0.80561849  0.46366848  0.56617872     1.27400
Ni519      Ni  0.80923541  0.49049043  0.48395216     1.26100
H520        H  0.79542390  0.51787477  0.49475061     0.39300
O521        O  0.93306611  0.20752273  0.02182247    -0.80700
O522        O  0.93488953  0.30003757  0.98031100    -0.65400
O523        O  0.94407287  0.24380883  0.99966630    -1.12000
C524        C  0.94045042  0.26519731  0.13457006     1.06200
O525        O  0.94892418  0.30994202  0.02177313    -0.78600
O526        O  0.96064824  0.28541574  0.07514176    -0.66100
Ni527      Ni  0.93673422  0.22119713  0.97306099     1.34900
C528        C  0.96505017  0.26727324  0.07267630     0.85000
O529        O  0.94074235  0.26825432  0.93123130    -0.79100
O530        O  0.94000502  0.23342324  0.92251023    -0.89400
C531        C  0.94143324  0.31414798  0.99475163     0.84500
O532        O  0.92095712  0.23163226  0.97119973    -0.67600
O533        O  0.94122956  0.28381887  0.12145536    -0.86900
C534        C  0.91634181  0.24953149  0.97472809     0.85400
C535        C  0.94084157  0.25196764  0.90930590     1.06900
H536        H  0.92916416  0.27419429  0.05103577     0.38700
O537        O  0.93748940  0.27327723  0.04456766    -1.09500
O538        O  0.95908568  0.25139491  0.06226829    -0.66200
Ni539      Ni  0.94239088  0.24559711  0.05639812     1.26300
O540        O  0.92228255  0.26576438  0.98303079    -0.66400
O541        O  0.94060450  0.24893220  0.11270745    -0.78700
C542        C  0.94102830  0.20272367  0.04657289     0.84700
O543        O  0.94663761  0.21690752  0.06475027    -0.65900
Ni544      Ni  0.94487906  0.29598968  0.07078356     1.27400
Ni545      Ni  0.93904950  0.27145804  0.98801991     1.26100
H546        H  0.95240055  0.24298853  0.99337540     0.39300
O547        O  0.92954304  0.20591288  0.51498742    -0.80700
O548        O  0.93230231  0.29794134  0.47899999    -0.65400
O549        O  0.94131161  0.24193959  0.49953637    -1.12000
C550        C  0.93498941  0.26047629  0.63428553     1.06200
O551        O  0.94394578  0.30951415  0.52708930    -0.78600
O552        O  0.95617816  0.28274509  0.57451909    -0.66100
Ni553      Ni  0.93517972  0.21970221  0.46869883     1.34900
C554        C  0.96041104  0.26441258  0.57494260     0.85000
O555        O  0.93964586  0.26717770  0.43185971    -0.79100
O556        O  0.94044494  0.23257195  0.42068006    -0.89400
C557        C  0.93770039  0.31264997  0.49625150     0.84500
O558        O  0.91958982  0.22985959  0.45948006    -0.67600
O559        O  0.93693258  0.27895806  0.62219064    -0.86900
C560        C  0.91455841  0.24728865  0.46442903     0.85400
C561        C  0.94100835  0.25145477  0.40911764     1.06900
H562        H  0.92489150  0.27168468  0.54788057     0.38700
O563        O  0.93334313  0.27067961  0.54378218    -1.09500
O564        O  0.95430772  0.24827475  0.56722164    -0.66200
Ni565      Ni  0.93788419  0.24258844  0.55550168     1.26300
O566        O  0.91990532  0.26325208  0.47782957    -0.66400
O567        O  0.93444746  0.24462296  0.61144639    -0.78700
C568        C  0.93672184  0.20014338  0.54155297     0.84700
O569        O  0.94186538  0.21367060  0.56287923    -0.65900
Ni570      Ni  0.94026006  0.29287832  0.57314814     1.27400
Ni571      Ni  0.93643410  0.26952407  0.48775946     1.26100
H572        H  0.94979718  0.24147502  0.49617089     0.39300
O573        O  0.81237007  0.20028478  0.37315384    -0.80700
O574        O  0.81587399  0.29762255  0.40533309    -0.65400
O575        O  0.80672000  0.24162403  0.38441469    -1.12000
C576        C  0.81224931  0.26320436  0.24981708     1.06200
O577        O  0.80312831  0.30922743  0.36069876    -0.78600
O578        O  0.79105879  0.28369714  0.31055447    -0.66100
Ni579      Ni  0.81511066  0.22049025  0.41324384     1.34900
C580        C  0.78701364  0.26526803  0.30913778     0.85000
O581        O  0.80878386  0.26686981  0.45207978    -0.79100
O582        O  0.81826154  0.23689628  0.45965423    -0.89400
C583        C  0.81001042  0.31233992  0.38989807     0.84500
O584        O  0.82983094  0.22869979  0.39034596    -0.67600
O585        O  0.81026497  0.28151693  0.26276375    -0.86900
C586        C  0.83450578  0.24643765  0.39637751     0.85400
C587        C  0.81377863  0.25334639  0.47381622     1.06900
H588        H  0.82251820  0.27277255  0.33546609     0.38700
O589        O  0.81412035  0.27148734  0.34041925    -1.09500
O590        O  0.79324452  0.24921571  0.31690966    -0.66200
Ni591      Ni  0.80979714  0.24368691  0.32776297     1.26300
O592        O  0.82832186  0.26273519  0.40320454    -0.66400
O593        O  0.81297234  0.24707883  0.27196235    -0.78700
C594        C  0.80821627  0.19932051  0.33832207     0.84700
O595        O  0.80608006  0.21517676  0.31691908    -0.65900
Ni596      Ni  0.80688648  0.29414105  0.31297899     1.27400
Ni597      Ni  0.81156714  0.26944808  0.39622198     1.26100
H598        H  0.79833814  0.24019414  0.38937629     0.39300
O599        O  0.82067143  0.20460432  0.86441811    -0.80700
O600        O  0.81646496  0.29678641  0.90797341    -0.65400
O601        O  0.80855461  0.24077193  0.88261282    -1.12000
C602        C  0.81471681  0.26291358  0.74961868     1.06200
O603        O  0.80493089  0.30920151  0.86003909    -0.78600
O604        O  0.79283292  0.28269099  0.81211992    -0.66100
Ni605      Ni  0.81530563  0.21810160  0.91155137     1.34900
C606        C  0.78912667  0.26413857  0.80835613     0.85000
O607        O  0.80992055  0.26449043  0.95304731    -0.79100
O608        O  0.81052940  0.22972678  0.96129095    -0.89400
C609        C  0.81119004  0.31176928  0.89098274     0.84500
O610        O  0.83084548  0.22895200  0.91808210    -0.67600
O611        O  0.81175130  0.28076367  0.76264845    -0.86900
C612        C  0.83547669  0.24685068  0.91477558     0.85400
C613        C  0.80943646  0.24814935  0.97471612     1.06900
H614        H  0.82436553  0.27302312  0.83710375     0.38700
O615        O  0.81594182  0.27127979  0.84105114    -1.09500
O616        O  0.79566258  0.24822252  0.81402300    -0.66200
Ni617      Ni  0.81217050  0.24328374  0.82687781     1.26300
O618        O  0.82957608  0.26304871  0.90567781    -0.66400
O619        O  0.81606455  0.24690189  0.77167827    -0.78700
C620        C  0.81401654  0.20027749  0.83544790     0.84700
O621        O  0.80883814  0.21459699  0.81620037    -0.65900
Ni622      Ni  0.80854713  0.29357713  0.81291214     1.27400
Ni623      Ni  0.81288331  0.26842202  0.89700555     1.26100
H624        H  0.80007555  0.23963781  0.88563205     0.39300
O625        O  0.93018600  0.70710470  0.25897655    -0.80700
O626        O  0.93365549  0.79955219  0.21745122    -0.65400
O627        O  0.94218196  0.74357948  0.24202574    -1.12000
C628        C  0.93501746  0.76466388  0.37490045     1.06200
O629        O  0.94498666  0.81193938  0.26589841    -0.78600
O630        O  0.95690806  0.78567546  0.31670792    -0.66100
Ni631      Ni  0.93592763  0.72085796  0.21245281     1.34900
C632        C  0.96094837  0.76719922  0.31899535     0.85000
O633        O  0.94055368  0.76760497  0.17168952    -0.79100
O634        O  0.94114759  0.73284159  0.16342574    -0.89400
C635        C  0.93887113  0.81457185  0.23452567     0.84500
O636        O  0.92031777  0.73123449  0.20404853    -0.67600
O637        O  0.93722342  0.78296840  0.36233051    -0.86900
C638        C  0.91534410  0.74878160  0.20867587     0.85400
C639        C  0.94170214  0.75138029  0.15001308     1.06900
H640        H  0.92585146  0.77473405  0.28744833     0.38700
O641        O  0.93431037  0.77346856  0.28381091    -1.09500
O642        O  0.95476756  0.75110873  0.31108514    -0.66200
Ni643      Ni  0.93838539  0.74551607  0.29761361     1.26300
O644        O  0.92092278  0.76505377  0.21923017    -0.66400
O645        O  0.93441141  0.74863880  0.35266176    -0.78700
C646        C  0.93655605  0.70250195  0.28858683     0.84700
O647        O  0.94186875  0.71665659  0.30788295    -0.65900
Ni648      Ni  0.94100514  0.79604462  0.31272527     1.27400
Ni649      Ni  0.93751566  0.77113719  0.22792519     1.26100
H650        H  0.95068347  0.74284065  0.23932320     0.39300
O651        O  0.93874814  0.70077602  0.75449878    -0.80700
O652        O  0.93682436  0.79804801  0.71590183    -0.65400
O653        O  0.94558731  0.74192899  0.74008454    -1.12000
C654        C  0.93918624  0.76450872  0.87372900     1.06200
O655        O  0.94884428  0.81019105  0.76218674    -0.78600
O656        O  0.96049077  0.78485002  0.81400301    -0.66100
Ni657      Ni  0.93802457  0.71994861  0.71124484     1.34900
C658        C  0.96462881  0.76646197  0.81489035     0.85000
O659        O  0.94444942  0.76684304  0.67130436    -0.79100
O660        O  0.93704775  0.73508728  0.66234435    -0.89400
C661        C  0.94248640  0.81295946  0.73151627     0.84500
O662        O  0.92251844  0.72872514  0.72619379    -0.67600
O663        O  0.94087574  0.78282311  0.86021245    -0.86900
C664        C  0.91801240  0.74662696  0.72023629     0.85400
C665        C  0.94090517  0.75223289  0.64901466     1.06900
H666        H  0.92926205  0.77332416  0.78586055     0.38700
O667        O  0.93771589  0.77217419  0.78205067    -1.09500
O668        O  0.95854431  0.75040043  0.80675997    -0.66200
Ni669      Ni  0.94216073  0.74450111  0.79621314     1.26300
O670        O  0.92429162  0.76308352  0.71655218    -0.66400
O671        O  0.93886085  0.74824278  0.85196927    -0.78700
C672        C  0.94326149  0.70016306  0.78889423     0.84700
O673        O  0.94613749  0.71625682  0.80836447    -0.65900
Ni674      Ni  0.94463906  0.79513359  0.80977290     1.27400
Ni675      Ni  0.94091759  0.76975256  0.72654618     1.26100
H676        H  0.95402058  0.74064052  0.73608012     0.39300
O677        O  0.81824134  0.70601445  0.11026976    -0.80700
O678        O  0.81418740  0.79966295  0.14616151    -0.65400
O679        O  0.80664095  0.74273618  0.12812183    -1.12000
C680        C  0.81273328  0.76203148  0.99259924     1.06200
O681        O  0.80170387  0.80938886  0.09900045    -0.78600
O682        O  0.79118853  0.78291061  0.04591688    -0.66100
Ni683      Ni  0.81412299  0.72102108  0.15725172     1.34900
C684        C  0.78684463  0.76476135  0.04935367     0.85000
O685        O  0.80803813  0.76863498  0.19546155    -0.79100
O686        O  0.81042129  0.73428041  0.20645857    -0.89400
C687        C  0.80821585  0.81366420  0.12870609     0.84500
O688        O  0.82971292  0.73219156  0.15809462    -0.67600
O689        O  0.81161547  0.78078321  0.00453014    -0.86900
C690        C  0.83396711  0.75039095  0.15544951     0.85400
C691        C  0.80844432  0.75277476  0.21842038     1.06900
H692        H  0.82208675  0.77284279  0.07839444     0.38700
O693        O  0.81364620  0.77186192  0.08282995    -1.09500
O694        O  0.79268313  0.74923888  0.06245494    -0.66200
Ni695      Ni  0.80924835  0.74376662  0.07175196     1.26300
O696        O  0.82767140  0.76639968  0.14815176    -0.66400
O697        O  0.81203151  0.74608991  0.01533520    -0.78700
C698        C  0.81064218  0.70087435  0.08453575     0.84700
O699        O  0.80524525  0.71485091  0.06484288    -0.65900
Ni700      Ni  0.80679215  0.79396984  0.05287518     1.27400
Ni701      Ni  0.81086786  0.77087776  0.13904760     1.26100
H702        H  0.79824691  0.74139431  0.13296778     0.39300
O703        O  0.82230600  0.70623008  0.60227924    -0.80700
O704        O  0.81874525  0.79624605  0.64970435    -0.65400
O705        O  0.81002129  0.74024714  0.62652688    -1.12000
C706        C  0.81204359  0.76510722  0.49358326     1.06200
O707        O  0.80358532  0.80567587  0.61245090    -0.78600
O708        O  0.79163806  0.78160532  0.55959918    -0.66100
Ni709      Ni  0.81743615  0.71738387  0.65203647     1.34900
C710        C  0.78794230  0.76297113  0.55828252     0.85000
O711        O  0.81411964  0.76276424  0.69655726    -0.79100
O712        O  0.81294234  0.72781092  0.70305719    -0.89400
C713        C  0.81141729  0.81003079  0.63827635     0.84500
O714        O  0.83292195  0.72848027  0.65882462    -0.67600
O715        O  0.81016775  0.78305907  0.50879082    -0.86900
C716        C  0.83770277  0.74596455  0.65204775     0.85400
C717        C  0.81300185  0.74618152  0.71745928     1.06900
H718        H  0.82378859  0.77307591  0.57585212     0.38700
O719        O  0.81561850  0.77103219  0.58353634    -1.09500
O720        O  0.79461254  0.74729106  0.56418449    -0.66200
Ni721      Ni  0.81152396  0.74323635  0.56982922     1.26300
O722        O  0.83185866  0.76189993  0.64075143    -0.66400
O723        O  0.81308143  0.74823481  0.51370370    -0.78700
C724        C  0.81455005  0.70053633  0.57758599     0.84700
O725        O  0.80832957  0.71420360  0.55989692    -0.65900
Ni726      Ni  0.80708490  0.79356435  0.56127882     1.27400
Ni727      Ni  0.81494691  0.76759516  0.63991192     1.26100
H728        H  0.80169912  0.73926999  0.63292187     0.39300
O729        O  0.93403832  0.05455929  0.09736620    -0.80700
O730        O  0.93505927  0.96254028  0.13760643    -0.65400
O731        O  0.94506341  0.01789752  0.11549246    -1.12000
C732        C  0.93928571  0.99781105  0.98094969     1.06200
O733        O  0.94694839  0.94992631  0.09107423    -0.78600
O734        O  0.95970625  0.97519155  0.04106185    -0.66100
Ni735      Ni  0.93892152  0.04083195  0.14468016     1.34900
C736        C  0.96421687  0.99331159  0.04062347     0.85000
O737        O  0.94239207  0.99366578  0.18453423    -0.79100
O738        O  0.94347154  0.02836609  0.19390493    -0.89400
C739        C  0.94033394  0.94735534  0.12132667     0.84500
O740        O  0.92304158  0.03148937  0.15184307    -0.67600
O741        O  0.94054990  0.97926358  0.99386157    -0.86900
C742        C  0.91790461  0.01416222  0.14684274     0.85400
C743        C  0.94371619  0.00967149  0.20665637     1.06900
H744        H  0.92863875  0.98837235  0.06714069     0.38700
O745        O  0.93706733  0.98892667  0.07186356    -1.09500
O746        O  0.95843335  0.00975714  0.04911264    -0.66200
Ni747      Ni  0.94207434  0.01658590  0.05925976     1.26300
O748        O  0.92327372  0.99778264  0.13566748    -0.66400
O749        O  0.93910563  0.01392508  0.00316514    -0.78700
C750        C  0.94143605  0.05942054  0.07079862     0.84700
O751        O  0.94650191  0.04524629  0.05071495    -0.65900
Ni752      Ni  0.94361515  0.96592250  0.04376643     1.27400
Ni753      Ni  0.93972468  0.99065954  0.12814538     1.26100
H754        H  0.95352563  0.01806092  0.11958314     0.39300
O755        O  0.93290429  0.05315006  0.59202963    -0.80700
O756        O  0.93577068  0.96212428  0.64069922    -0.65400
O757        O  0.94438462  0.01753437  0.61443031    -1.12000
C758        C  0.93913910  0.99415305  0.48125574     1.06200
O759        O  0.94791683  0.94953755  0.59469623    -0.78600
O760        O  0.95976484  0.97392377  0.54099424    -0.66100
Ni761      Ni  0.93766544  0.04077865  0.64103521     1.34900
C762        C  0.96420923  0.99208588  0.54141088     0.85000
O763        O  0.94222350  0.99479532  0.68497885    -0.79100
O764        O  0.94207814  0.02973180  0.69182509    -0.89400
C765        C  0.94147844  0.94713615  0.62539058     0.84500
O766        O  0.92193329  0.03070602  0.64770390    -0.67600
O767        O  0.94015733  0.97575181  0.49520722    -0.86900
C768        C  0.91712272  0.01295616  0.64492602     0.85400
C769        C  0.94297272  0.01133782  0.70589808     1.06900
H770        H  0.92864778  0.98622946  0.56824623     0.38700
O771        O  0.93706486  0.98714236  0.57294734    -1.09500
O772        O  0.95832188  0.00834321  0.55030409    -0.66200
Ni773      Ni  0.94177435  0.01457766  0.55835170     1.26300
O774        O  0.92287711  0.99648725  0.63624076    -0.66400
O775        O  0.93919538  0.01056827  0.50253666    -0.78700
C776        C  0.94030746  0.05734238  0.56500085     0.84700
O777        O  0.94585037  0.04290313  0.54740722    -0.65900
Ni778      Ni  0.94386758  0.96389824  0.54617541     1.27400
Ni779      Ni  0.93960426  0.99033320  0.62908732     1.26100
H780        H  0.95281133  0.01836994  0.61901253     0.39300
O781        O  0.82077110  0.05487980  0.25751730    -0.80700
O782        O  0.81955686  0.96316228  0.21325746    -0.65400
O783        O  0.80978974  0.01843492  0.23642443    -1.12000
C784        C  0.81483571  0.99616226  0.37021802     1.06200
O785        O  0.80677204  0.95087018  0.25744196    -0.78600
O786        O  0.79427205  0.97531212  0.30945805    -0.66100
Ni787      Ni  0.81648704  0.04158459  0.20909944     1.34900
C788        C  0.78988857  0.99354483  0.31030901     0.85000
O789        O  0.81298706  0.99485807  0.16688866    -0.79100
O790        O  0.81287302  0.02966409  0.15846918    -0.89400
C791        C  0.81368982  0.94824903  0.22803142     0.84500
O792        O  0.83234059  0.03214072  0.20522364    -0.67600
O793        O  0.81353531  0.97777548  0.35663812    -0.86900
C794        C  0.83733131  0.01461835  0.20920377     0.85400
C795        C  0.81242562  0.01112038  0.14508749     1.06900
H796        H  0.82566380  0.98784241  0.28506598     0.38700
O797        O  0.81722953  0.98867890  0.27951193    -1.09500
O798        O  0.79580445  0.00982805  0.30184725    -0.66200
Ni799      Ni  0.81230988  0.01616615  0.29279314     1.26300
O800        O  0.83173477  0.99797734  0.21743868    -0.66400
O801        O  0.81498660  0.01257744  0.34872289    -0.78700
C802        C  0.81335069  0.05908926  0.28436575     0.84700
O803        O  0.80795939  0.04458724  0.30245677    -0.65900
Ni804      Ni  0.81027945  0.96551692  0.30595709     1.27400
Ni805      Ni  0.81511162  0.99122833  0.22321399     1.26100
H806        H  0.80148604  0.01889459  0.23155691     0.39300
O807        O  0.81920944  0.05491717  0.75686993    -0.80700
O808        O  0.81876561  0.96200243  0.71493548    -0.65400
O809        O  0.80866923  0.01773645  0.73596392    -1.12000
C810        C  0.81250605  0.99513529  0.86983318     1.06200
O811        O  0.80436791  0.95140506  0.75450401    -0.78600
O812        O  0.79189945  0.97560739  0.80630196    -0.66100
Ni813      Ni  0.81531707  0.04093636  0.70877786     1.34900
C814        C  0.78776632  0.99398796  0.80684410     0.85000
O815        O  0.81260044  0.99387953  0.66686130    -0.79100
O816        O  0.81189477  0.02868041  0.65848332    -0.89400
C817        C  0.81204063  0.94764458  0.72777628     0.84500
O818        O  0.83130920  0.03163589  0.70565119    -0.67600
O819        O  0.81080099  0.97685330  0.85595326    -0.86900
C820        C  0.83639790  0.01418499  0.71021340     0.85400
C821        C  0.81178864  0.01014007  0.64511750     1.06900
H822        H  0.82383519  0.98671643  0.78653524     0.38700
O823        O  0.81555432  0.98795829  0.77980304    -1.09500
O824        O  0.79406337  0.01000265  0.79998412    -0.66200
Ni825      Ni  0.81074445  0.01555560  0.79254487     1.26300
O826        O  0.83085124  0.99752501  0.71914415    -0.66400
O827        O  0.81302248  0.01163975  0.84856802    -0.78700
C828        C  0.81181260  0.05879827  0.78402793     0.84700
O829        O  0.80656876  0.04412802  0.80215059    -0.65900
Ni830      Ni  0.80775211  0.96509004  0.80439623     1.27400
Ni831      Ni  0.81417953  0.99041506  0.72344858     1.26100
H832        H  0.80028384  0.01803035  0.73035159     0.39300
O833        O  0.19642923  0.05935076  0.22299727    -0.80700
O834        O  0.19506598  0.96462962  0.17996598    -0.65400
O835        O  0.18628478  0.02098222  0.20172793    -1.12000
C836        C  0.19293303  0.99955461  0.33631668     1.06200
O837        O  0.18320810  0.95461121  0.22806878    -0.78600
O838        O  0.17247778  0.97767662  0.28336684    -0.66100
Ni839      Ni  0.19366440  0.04370409  0.17495145     1.34900
C840        C  0.16695855  0.99455942  0.27686963     0.85000
O841        O  0.18778461  0.99641441  0.13310976    -0.79100
O842        O  0.19104756  0.03076185  0.12449962    -0.89400
C843        C  0.19033312  0.95024551  0.20037171     0.84500
O844        O  0.20972221  0.03361598  0.17454931    -0.67600
O845        O  0.19324941  0.98097101  0.32329373    -0.86900
C846        C  0.21374071  0.01515068  0.17182276     0.85400
C847        C  0.18891139  0.01257615  0.11117659     1.06900
H848        H  0.20256982  0.99174507  0.24889374     0.38700
O849        O  0.19409560  0.99164357  0.24510797    -1.09500
O850        O  0.17202827  0.01100546  0.26420434    -0.66200
Ni851      Ni  0.18854033  0.01871081  0.25801236     1.26300
O852        O  0.20739715  0.99909168  0.17801474    -0.66400
O853        O  0.19092747  0.01550690  0.31455493    -0.78700
C854        C  0.18930120  0.06189330  0.25191824     0.84700
O855        O  0.18374614  0.04670450  0.26725547    -0.65900
Ni856      Ni  0.18835267  0.96851553  0.27473347     1.27400
Ni857      Ni  0.19094344  0.99324770  0.18897503     1.26100
H858        H  0.17791320  0.02214347  0.19634247     0.39300
O859        O  0.20173207  0.05707343  0.72395231    -0.80700
O860        O  0.19876539  0.96411652  0.68037916    -0.65400
O861        O  0.18996588  0.02061094  0.70145133    -1.12000
C862        C  0.19356111  0.99852706  0.83607717     1.06200
O863        O  0.18505847  0.95453537  0.72305758    -0.78600
O864        O  0.17343696  0.97891213  0.77413528    -0.66100
Ni865      Ni  0.19726759  0.04342244  0.67512689     1.34900
C866        C  0.16893277  0.99691143  0.77119175     0.85000
O867        O  0.19261803  0.99664664  0.63263550    -0.79100
O868        O  0.19308289  0.03163090  0.62481573    -0.89400
C869        C  0.19263760  0.94993492  0.69679621     0.84500
O870        O  0.21295944  0.03258345  0.66914441    -0.67600
O871        O  0.19252624  0.98007613  0.82253797    -0.86900
C872        C  0.21731907  0.01441672  0.67192211     0.85400
C873        C  0.19215208  0.01314079  0.61125226     1.06900
H874        H  0.20488143  0.98963697  0.75143973     0.38700
O875        O  0.19654061  0.99072557  0.74548373    -1.09500
O876        O  0.17496275  0.01313298  0.76339733    -0.66200
Ni877      Ni  0.19177057  0.01842938  0.75778707     1.26300
O878        O  0.21133292  0.99859903  0.68267108    -0.66400
O879        O  0.19364061  0.01490407  0.81436976    -0.78700
C880        C  0.19443657  0.06116554  0.75164322     0.84700
O881        O  0.18790397  0.04702035  0.76620163    -0.65900
Ni882      Ni  0.18907734  0.96812256  0.77182472     1.27400
Ni883      Ni  0.19467516  0.99290657  0.68902639     1.26100
H884        H  0.18162589  0.02165952  0.69548035     0.39300
O885        O  0.05452101  0.05572847  0.38048795    -0.80700
O886        O  0.05828324  0.96036709  0.41470824    -0.65400
O887        O  0.06592601  0.01748693  0.39551734    -1.12000
C888        C  0.06367096  0.00250357  0.26101024     1.06200
O889        O  0.06490434  0.94711254  0.35751856    -0.78600
O890        O  0.08153991  0.97679712  0.33966653    -0.66100
Ni891      Ni  0.05899467  0.03934161  0.42597758     1.34900
C892        C  0.08592117  0.99483506  0.33465611     0.85000
O893        O  0.06524519  0.99123728  0.46231361    -0.79100
O894        O  0.06324016  0.02555965  0.47414528    -0.89400
C895        C  0.06080758  0.94507544  0.39231853     0.84500
O896        O  0.04330053  0.02835518  0.42988413    -0.67600
O897        O  0.06876039  0.98613141  0.27320252    -0.86900
C898        C  0.03912975  0.01002044  0.42799459     0.85400
C899        C  0.06522644  0.00696883  0.48552637     1.06900
H900        H  0.04994156  0.98695977  0.34547756     0.38700
O901        O  0.05833842  0.98857772  0.34987678    -1.09500
O902        O  0.07946534  0.01104263  0.32987687    -0.66200
Ni903      Ni  0.06271732  0.01691523  0.33997822     1.26300
O904        O  0.04524715  0.99425692  0.41769903    -0.66400
O905        O  0.05914303  0.01567164  0.28451450    -0.78700
C906        C  0.06117472  0.05981929  0.35107176     0.84700
O907        O  0.06663583  0.04551998  0.33284722    -0.65900
Ni908      Ni  0.06664314  0.96843771  0.31857258     1.27400
Ni909      Ni  0.06178366  0.98924917  0.40624461     1.26100
H910        H  0.07436794  0.01869747  0.39941112     0.39300
O911        O  0.05395669  0.05338230  0.86720941    -0.80700
O912        O  0.05744859  0.96242316  0.91888130    -0.65400
O913        O  0.06589947  0.01853707  0.89533481    -1.12000
C914        C  0.06457222  0.99457843  0.76129126     1.06200
O915        O  0.07115694  0.95172797  0.87728092    -0.78600
O916        O  0.08366491  0.97561684  0.82735511    -0.66100
Ni917      Ni  0.05765981  0.04130109  0.91820719     1.34900
C918        C  0.08820151  0.99356915  0.83132122     0.85000
O919        O  0.06281241  0.99575280  0.96480780    -0.79100
O920        O  0.06095600  0.03073066  0.97045033    -0.89400
C921        C  0.06319559  0.94776562  0.90263365     0.84500
O922        O  0.04210703  0.02988480  0.92190477    -0.67600
O923        O  0.06514125  0.97626108  0.77579516    -0.86900
C924        C  0.03815210  0.01142990  0.92108531     0.85400
C925        C  0.06241562  0.01256183  0.98521980     1.06900
H926        H  0.05198228  0.98686364  0.84487452     0.38700
O927        O  0.06024618  0.98790279  0.85194390    -1.09500
O928        O  0.08209756  0.00989060  0.83768104    -0.66200
Ni929      Ni  0.06524395  0.01545456  0.83892425     1.26300
O930        O  0.04453780  0.99573784  0.91267349    -0.66400
O931        O  0.06456398  0.01118060  0.78222077    -0.78700
C932        C  0.06180303  0.05778908  0.84143888     0.84700
O933        O  0.06911325  0.04407946  0.82980219    -0.65900
Ni934      Ni  0.06793669  0.96490764  0.82751056     1.27400
Ni935      Ni  0.06138543  0.99096125  0.90863594     1.26100
H936        H  0.07408146  0.02013706  0.90309869     0.39300
O937        O  0.05639730  0.20018762  0.23241369    -0.80700
O938        O  0.05854947  0.29432473  0.19230896    -0.65400
O939        O  0.06724388  0.23792682  0.21348365    -1.12000
C940        C  0.05992734  0.25867578  0.34778603     1.06200
O941        O  0.07087153  0.30311186  0.23966641    -0.78600
O942        O  0.08120977  0.27980538  0.29549761    -0.66100
Ni943      Ni  0.06042387  0.21537619  0.18504639     1.34900
C944        C  0.08628957  0.26239885  0.29058206     0.85000
O945        O  0.06582375  0.26293732  0.14468863    -0.79100
O946        O  0.06421830  0.22830193  0.13537735    -0.89400
C947        C  0.06355942  0.30822415  0.21303366     0.84500
O948        O  0.04450569  0.22553348  0.18093782    -0.67600
O949        O  0.06038395  0.27735592  0.33509098    -0.86900
C950        C  0.04015213  0.24378902  0.18137996     0.85400
C951        C  0.06578105  0.24678278  0.12250368     1.06900
H952        H  0.05089025  0.26744090  0.26060098     0.38700
O953        O  0.05936753  0.26703650  0.25691399    -1.09500
O954        O  0.08089792  0.24624276  0.27830780    -0.66200
Ni955      Ni  0.06436830  0.23966027  0.26969043     1.26300
O956        O  0.04614633  0.25987577  0.19022002    -0.66400
O957        O  0.06139850  0.24262087  0.32590052    -0.78700
C958        C  0.06326667  0.19670002  0.26157716     0.84700
O959        O  0.06865580  0.21138087  0.27894789    -0.65900
Ni960      Ni  0.06550404  0.28969716  0.28658229     1.27400
Ni961      Ni  0.06260721  0.26568973  0.20078194     1.26100
H962        H  0.07568565  0.23700158  0.20912231     0.39300
O963        O  0.05140950  0.20125567  0.73655370    -0.80700
O964        O  0.05289329  0.29347641  0.69294667    -0.65400
O965        O  0.06270323  0.23748109  0.71215416    -1.12000
C966        C  0.06164719  0.25944371  0.84687911     1.06200
O967        O  0.06773595  0.30307730  0.73094158    -0.78600
O968        O  0.08055529  0.27906416  0.77855160    -0.66100
Ni969      Ni  0.05535094  0.21458732  0.68702085     1.34900
C970        C  0.08500113  0.26106620  0.77489039     0.85000
O971        O  0.05845877  0.26139609  0.64403191    -0.79100
O972        O  0.05910875  0.22644208  0.63632968    -0.89400
C973        C  0.05970195  0.30752363  0.70610333     0.84500
O974        O  0.03955726  0.22507491  0.68250422    -0.67600
O975        O  0.06265430  0.27782250  0.83274146    -0.86900
C976        C  0.03491253  0.24289448  0.68732266     0.85400
C977        C  0.05941223  0.24500922  0.62266927     1.06900
H978        H  0.04861220  0.26816171  0.76557196     0.38700
O979        O  0.05679337  0.26706859  0.75743912    -1.09500
O980        O  0.07879237  0.24475391  0.77037908    -0.66200
Ni981      Ni  0.06192528  0.23940950  0.76874624     1.26300
O982        O  0.04074297  0.25874574  0.69855442    -0.66400
O983        O  0.06112471  0.24296604  0.82559349    -0.78700
C984        C  0.05919537  0.19672588  0.76239875     0.84700
O985        O  0.06596347  0.21070731  0.77626880    -0.65900
Ni986      Ni  0.06489235  0.28969565  0.78100559     1.27400
Ni987      Ni  0.05743300  0.26494553  0.70078525     1.26100
H988        H  0.07093869  0.23683956  0.70441189     0.39300
O989        O  0.19564843  0.19688993  0.39191867    -0.80700
O990        O  0.19590497  0.29382957  0.42678275    -0.65400
O991        O  0.18667185  0.23751164  0.40679579    -1.12000
C992        C  0.18884831  0.25299170  0.27218156     1.06200
O993        O  0.19012699  0.30811891  0.36951031    -0.78600
O994        O  0.17235652  0.28039691  0.35138072    -0.66100
Ni995      Ni  0.19338873  0.21511824  0.43698231     1.34900
C996        C  0.16737670  0.26278349  0.34683722     0.85000
O997        O  0.18767214  0.26380941  0.47299672    -0.79100
O998        O  0.19120455  0.23004779  0.48579791    -0.89400
C999        C  0.19404535  0.30951118  0.40464784     0.84500
O1000       O  0.20957909  0.22398389  0.43419892    -0.67600
O1001       O  0.18471687  0.27008710  0.28470407    -0.86900
C1002       C  0.21395305  0.24220965  0.43570438     0.85400
C1003       C  0.18869491  0.24848378  0.49680529     1.06900
H1004       H  0.20363143  0.26674517  0.35724747     0.38700
O1005       O  0.19518730  0.26600704  0.36142058    -1.09500
O1006       O  0.17328440  0.24598906  0.34191482    -0.66200
Ni1007     Ni  0.18981091  0.23830003  0.35113652     1.26300
O1008       O  0.20784596  0.25866180  0.43009169    -0.66400
O1009       O  0.19321687  0.23947401  0.29539433    -0.78700
C1010       C  0.18965769  0.19504771  0.36011951     0.84700
O1011       O  0.18485651  0.21046623  0.34320436    -0.65900
Ni1012     Ni  0.18757568  0.28720364  0.33033536     1.27400
Ni1013     Ni  0.19154384  0.26539979  0.41760254     1.26100
H1014       H  0.17821303  0.23682457  0.41105241     0.39300
O1015       O  0.19901768  0.19988559  0.88108771    -0.80700
O1016       O  0.19189708  0.29220795  0.93134743    -0.65400
O1017       O  0.18625204  0.23520933  0.90571497    -1.12000
C1018       C  0.19091010  0.25966790  0.77227575     1.06200
O1019       O  0.17977459  0.30190714  0.88370706    -0.78600
O1020       O  0.17016548  0.27744273  0.82861314    -0.66100
Ni1021     Ni  0.19479740  0.21333374  0.93078114     1.34900
C1022       C  0.16560054  0.25960443  0.83359236     0.85000
O1023       O  0.18598856  0.25848359  0.97537050    -0.79100
O1024       O  0.19097619  0.22458424  0.98233664    -0.89400
C1025       C  0.18636334  0.30639326  0.91279940     0.84500
O1026       O  0.21003080  0.22618428  0.93328885    -0.67600
O1027       O  0.19054016  0.27806009  0.78623630    -0.86900
C1028       C  0.21306787  0.24510053  0.93701293     0.85400
C1029       C  0.18761631  0.24210537  0.99640144     1.06900
H1030       H  0.20092503  0.26776246  0.86061075     0.38700
O1031       O  0.19247645  0.26644491  0.86428472    -1.09500
O1032       O  0.17149095  0.24368211  0.84443758    -0.66200
Ni1033     Ni  0.18830676  0.23872262  0.84985080     1.26300
O1034       O  0.20598503  0.26022355  0.93150695    -0.66400
O1035       O  0.19021042  0.24320163  0.79355953    -0.78700
C1036       C  0.19201246  0.19625768  0.85225270     0.84700
O1037       O  0.18501158  0.21014638  0.83936050    -0.65900
Ni1038     Ni  0.18546722  0.28907882  0.83618331     1.27400
Ni1039     Ni  0.18931585  0.26331047  0.92014351     1.26100
H1040       H  0.17797465  0.23253920  0.91107839     0.39300
O1041       O  0.04922578  0.69940958  0.49913058    -0.80700
O1042       O  0.05526481  0.79062343  0.44560464    -0.65400
O1043       O  0.06176140  0.73388283  0.47114122    -1.12000
C1044       C  0.05934591  0.75750844  0.60532668     1.06200
O1045       O  0.06758315  0.80140269  0.49209788    -0.78600
O1046       O  0.07898301  0.77656443  0.54340593    -0.66100
Ni1047     Ni  0.05300484  0.71171656  0.44827686     1.34900
C1048       C  0.08354654  0.75865298  0.53910794     0.85000
O1049       O  0.06068074  0.75657037  0.40122982    -0.79100
O1050       O  0.05645450  0.72220916  0.39611943    -0.89400
C1051       C  0.06068336  0.80519707  0.46335806     0.84500
O1052       O  0.03765695  0.72423201  0.44543910    -0.67600
O1053       O  0.05975252  0.77595309  0.59150358    -0.86900
C1054       C  0.03439479  0.74306078  0.44178391     0.85400
C1055       C  0.05927079  0.73982416  0.38110831     1.06900
H1056       H  0.04758395  0.76609043  0.51869909     0.38700
O1057       O  0.05596606  0.76493878  0.51347360    -1.09500
O1058       O  0.07752685  0.74252459  0.53031347    -0.66200
Ni1059     Ni  0.06061905  0.73722245  0.52721951     1.26300
O1060       O  0.04132348  0.75835226  0.44788522    -0.66400
O1061       O  0.05944677  0.74120154  0.58373393    -0.78700
C1062       C  0.05704090  0.69501040  0.52500446     0.84700
O1063       O  0.06430077  0.70870872  0.53675438    -0.65900
Ni1064     Ni  0.06334113  0.78759204  0.54043932     1.27400
Ni1065     Ni  0.05818707  0.76176380  0.45690423     1.26100
H1066       H  0.06996265  0.73142373  0.46432205     0.39300
O1067       O  0.05359727  0.69722498  0.98839275    -0.80700
O1068       O  0.05548974  0.79253398  0.94780116    -0.65400
O1069       O  0.06391621  0.73639040  0.97183374    -1.12000
C1070       C  0.06041341  0.75377282  0.10564415     1.06200
O1071       O  0.06105550  0.80754128  0.00448183    -0.78600
O1072       O  0.07805461  0.77971331  0.02821519    -0.66100
Ni1073     Ni  0.05722315  0.71385462  0.94220364     1.34900
C1074       C  0.08282142  0.76203263  0.03422175     0.85000
O1075       O  0.06357192  0.76163356  0.90395078    -0.79100
O1076       O  0.06057875  0.72754725  0.89280103    -0.89400
C1077       C  0.05747736  0.80845824  0.96891372     0.84500
O1078       O  0.04121216  0.72365587  0.94023021    -0.67600
O1079       O  0.06442580  0.77093190  0.09284101    -0.86900
C1080       C  0.03707985  0.74205345  0.93877296     0.85400
C1081       C  0.06290008  0.74593055  0.88094682     1.06900
H1082       H  0.04686745  0.76660740  0.01814273     0.38700
O1083       O  0.05534318  0.76567432  0.01492027    -1.09500
O1084       O  0.07679437  0.74530715  0.03807663    -0.66200
Ni1085     Ni  0.06036283  0.73787204  0.02715008     1.26300
O1086       O  0.04323555  0.75817097  0.94594008    -0.66400
O1087       O  0.05655722  0.73973773  0.08259961    -0.78700
C1088       C  0.05985687  0.69465890  0.01936881     0.84700
O1089       O  0.06497788  0.70978259  0.03623869    -0.65900
Ni1090     Ni  0.06259675  0.78728332  0.04561615     1.27400
Ni1091     Ni  0.05945972  0.76421203  0.95909118     1.26100
H1092       H  0.07239299  0.73537239  0.96847850     0.39300
O1093       O  0.19271268  0.69843895  0.15671869    -0.80700
O1094       O  0.19255094  0.79370980  0.19496518    -0.65400
O1095       O  0.18291667  0.73751799  0.17566401    -1.12000
C1096       C  0.18841991  0.75795500  0.04017352     1.06200
O1097       O  0.17965113  0.80311470  0.14984382    -0.78600
O1098       O  0.16811254  0.77979053  0.09666004    -0.66100
Ni1099     Ni  0.18990754  0.71483702  0.20377247     1.34900
C1100       C  0.16304263  0.76240961  0.10191152     0.85000
O1101       O  0.18515282  0.76296722  0.24306584    -0.79100
O1102       O  0.18732395  0.72854602  0.25371559    -0.89400
C1103       C  0.18737880  0.80789652  0.17535831     0.84500
O1104       O  0.20604185  0.72415575  0.20335851    -0.67600
O1105       O  0.18805986  0.77667325  0.05263125    -0.86900
C1106       C  0.21049189  0.74233303  0.20343817     0.85400
C1107       C  0.18567593  0.74711749  0.26586043     1.06900
H1108       H  0.19896008  0.76662575  0.12587305     0.38700
O1109       O  0.19053505  0.76640822  0.13077817    -1.09500
O1110       O  0.16852007  0.74606927  0.11297176    -0.66200
Ni1111     Ni  0.18511097  0.73912578  0.11916484     1.26300
O1112       O  0.20445679  0.75869540  0.19650796    -0.66400
O1113       O  0.18735682  0.74196224  0.06257164    -0.78700
C1114       C  0.18608671  0.69592229  0.12656273     0.84700
O1115       O  0.18055868  0.71094947  0.11059813    -0.65900
Ni1116     Ni  0.18401990  0.78925796  0.10209751     1.27400
Ni1117     Ni  0.18796877  0.76524303  0.18715661     1.26100
H1118       H  0.17452508  0.73686029  0.18125364     0.39300
O1119       O  0.19782032  0.70001509  0.64795313    -0.80700
O1120       O  0.19519614  0.79209000  0.69687806    -0.65400
O1121       O  0.18624271  0.73557055  0.67566585    -1.12000
C1122       C  0.18754746  0.75940863  0.54139464     1.06200
O1123       O  0.18030365  0.80023418  0.65838941    -0.78600
O1124       O  0.16826387  0.77787108  0.60555369    -0.66100
Ni1125     Ni  0.19433924  0.71264013  0.69873009     1.34900
C1126       C  0.16371097  0.75997548  0.60950622     0.85000
O1127       O  0.19019243  0.75870151  0.74447398    -0.79100
O1128       O  0.19121868  0.72362449  0.75077743    -0.89400
C1129       C  0.18852746  0.80584519  0.68145396     0.84500
O1130       O  0.21005148  0.72362754  0.70160005    -0.67600
O1131       O  0.18698381  0.77785039  0.55544579    -0.86900
C1132       C  0.21421083  0.74193925  0.69952968     0.85400
C1133       C  0.19029774  0.74196525  0.76523360     1.06900
H1134       H  0.20002547  0.76693254  0.62345821     0.38700
O1135       O  0.19181781  0.76585844  0.63130662    -1.09500
O1136       O  0.16979821  0.74380083  0.61748535    -0.66200
Ni1137     Ni  0.18674201  0.73843616  0.61913328     1.26300
O1138       O  0.20794471  0.75777032  0.69069152    -0.66400
O1139       O  0.18746703  0.74283248  0.56262757    -0.78700
C1140       C  0.18999966  0.69594850  0.62191027     0.84700
O1141       O  0.18279935  0.70985517  0.61034769    -0.65900
Ni1142     Ni  0.18389285  0.78866366  0.60755974     1.27400
Ni1143     Ni  0.19112853  0.76317854  0.68807316     1.26100
H1144       H  0.17805636  0.73428444  0.68374343     0.39300
O1145       O  0.05347387  0.56013925  0.15939123    -0.80700
O1146       O  0.05349050  0.46440826  0.20058824    -0.65400
O1147       O  0.06262643  0.52060811  0.18007919    -1.12000
C1148       C  0.05711339  0.49961060  0.04498155     1.06200
O1149       O  0.06622917  0.45466492  0.15478802    -0.78600
O1150       O  0.07745662  0.47782168  0.09996993    -0.66100
Ni1151     Ni  0.05497226  0.54316287  0.20660139     1.34900
C1152       C  0.08269341  0.49499088  0.10591998     0.85000
O1153       O  0.06042304  0.49539305  0.24792931    -0.79100
O1154       O  0.05632088  0.52930096  0.25702907    -0.89400
C1155       C  0.05893110  0.45020018  0.18203363     0.84500
O1156       O  0.03894978  0.53361785  0.20109858    -0.67600
O1157       O  0.05713252  0.48086136  0.05746755    -0.86900
C1158       C  0.03475290  0.51529648  0.20389746     0.85400
C1159       C  0.05878041  0.51116795  0.27011010     1.06900
H1160       H  0.04674581  0.49128071  0.13088345     0.38700
O1161       O  0.05517105  0.49136764  0.13576788    -1.09500
O1162       O  0.07733131  0.51121044  0.11822134    -0.66200
Ni1163     Ni  0.06071193  0.51845836  0.12365764     1.26300
O1164       O  0.04113806  0.49901219  0.20100875    -0.66400
O1165       O  0.05858506  0.51544782  0.06729289    -0.78700
C1166       C  0.06015202  0.56171178  0.12904940     0.84700
O1167       O  0.06551027  0.54626128  0.11425728    -0.65900
Ni1168     Ni  0.06152970  0.46844118  0.10705808     1.27400
Ni1169     Ni  0.05772000  0.49284380  0.19205519     1.26100
H1170       H  0.07095962  0.52165016  0.18619663     0.39300
O1171       O  0.04967319  0.55659234  0.65463112    -0.80700
O1172       O  0.05312630  0.46387036  0.70008599    -0.65400
O1173       O  0.06130826  0.52060750  0.67982895    -1.12000
C1174       C  0.05819392  0.49764230  0.54544961     1.06200
O1175       O  0.06787063  0.45686406  0.66001013    -0.78600
O1176       O  0.07856502  0.47933634  0.60434234    -0.66100
Ni1177     Ni  0.05341287  0.54316151  0.70450210     1.34900
C1178       C  0.08317805  0.49699808  0.61014221     0.85000
O1179       O  0.05827156  0.49652972  0.74818188    -0.79100
O1180       O  0.05669875  0.53140533  0.75602956    -0.89400
C1181       C  0.06009299  0.45075407  0.68432890     0.84500
O1182       O  0.03778169  0.53207782  0.70679499    -0.67600
O1183       O  0.05872466  0.47914276  0.55935724    -0.86900
C1184       C  0.03358579  0.51378156  0.70558309     0.85400
C1185       C  0.05793029  0.51292962  0.76966720     1.06900
H1186       H  0.04706462  0.48966602  0.62868439     0.38700
O1187       O  0.05535084  0.49071404  0.63543919    -1.09500
O1188       O  0.07718664  0.51288476  0.62040453    -0.66200
Ni1189     Ni  0.06027702  0.51814889  0.62331348     1.26300
O1190       O  0.03983420  0.49781567  0.69744326    -0.66400
O1191       O  0.05901734  0.51415291  0.56660565    -0.78700
C1192       C  0.05712201  0.56046185  0.62725150     0.84700
O1193       O  0.06417440  0.54660912  0.61477480    -0.65900
Ni1194     Ni  0.06308072  0.46825885  0.61018166     1.27400
Ni1195     Ni  0.05670690  0.49283366  0.69195143     1.26100
H1196       H  0.06955047  0.52192734  0.68704151     0.39300
O1197       O  0.19693727  0.55452131  0.50685881    -0.80700
O1198       O  0.19239314  0.46251610  0.45738099    -0.65400
O1199       O  0.18494140  0.51891709  0.48219517    -1.12000
C1200       C  0.18925600  0.49477373  0.61603430     1.06200
O1201       O  0.17969694  0.45233353  0.50281710    -0.78600
O1202       O  0.16887454  0.47602676  0.55666598    -0.66100
Ni1203     Ni  0.19290840  0.54141728  0.45708521     1.34900
C1204       C  0.16411850  0.49375474  0.55184868     0.85000
O1205       O  0.18609158  0.49557625  0.41273129    -0.79100
O1206       O  0.18934186  0.53009694  0.40553688    -0.89400
C1207       C  0.18688724  0.44807732  0.47516591     0.84500
O1208       O  0.20845200  0.52993480  0.45391851    -0.67600
O1209       O  0.18881697  0.47640138  0.60188992    -0.86900
C1210       C  0.21218218  0.51131976  0.45255568     0.85400
C1211       C  0.18698507  0.51206716  0.39162465     1.06900
H1212       H  0.19990940  0.48725818  0.52917745     0.38700
O1213       O  0.19149531  0.48822238  0.52443617    -1.09500
O1214       O  0.16995871  0.51001547  0.54279099    -0.66200
Ni1215     Ni  0.18673311  0.51573087  0.53838063     1.26300
O1216       O  0.20561448  0.49563708  0.45922312    -0.66400
O1217       O  0.18848900  0.51132153  0.59491343    -0.78700
C1218       C  0.18960624  0.55842160  0.53454316     0.84700
O1219       O  0.18289695  0.54427849  0.54829307    -0.65900
Ni1220     Ni  0.18449532  0.46522971  0.55130917     1.27400
Ni1221     Ni  0.18891838  0.49113637  0.46824848     1.26100
H1222       H  0.17664901  0.52078463  0.47628686     0.39300
O1223       O  0.19397488  0.55713021  0.99886533    -0.80700
O1224       O  0.19213234  0.46213215  0.95928223    -0.65400
O1225       O  0.18335837  0.51835781  0.98175926    -1.12000
C1226       C  0.18598425  0.50065718  0.11582643     1.06200
O1227       O  0.18521621  0.44726652  0.01464408    -0.78600
O1228       O  0.16822064  0.47564589  0.03719563    -0.66100
Ni1229     Ni  0.19011570  0.54100122  0.95254915     1.34900
C1230       C  0.16356931  0.49348548  0.04259199     0.85000
O1231       O  0.18471126  0.49320360  0.91373473    -0.79100
O1232       O  0.18664252  0.52762284  0.90318220    -0.89400
C1233       C  0.18954957  0.44623499  0.97998301     0.84500
O1234       O  0.20608327  0.53116516  0.94994480    -0.67600
O1235       O  0.18157164  0.48383092  0.10304252    -0.86900
C1236       C  0.21045971  0.51294233  0.95033821     0.85400
C1237       C  0.18498399  0.50909692  0.89097424     1.06900
H1238       H  0.19975236  0.48776023  0.03030846     0.38700
O1239       O  0.19132480  0.48894457  0.02588754    -1.09500
O1240       O  0.16978545  0.50998055  0.04708699    -0.66200
Ni1241     Ni  0.18644768  0.51686585  0.03740757     1.26300
O1242       O  0.20446914  0.49672823  0.95873615    -0.66400
O1243       O  0.18994923  0.51469839  0.09286510    -0.78700
C1244       C  0.18754891  0.56016111  0.02924341     0.84700
O1245       O  0.18213848  0.54527911  0.04614536    -0.65900
Ni1246     Ni  0.18351743  0.46751867  0.05577898     1.27400
Ni1247     Ni  0.18803018  0.49053965  0.96955976     1.26100
H1248       H  0.17491469  0.51924272  0.97769221     0.39300
O1249       O  0.42800805  0.55300078  0.11239759    -0.80700
O1250       O  0.43156120  0.46137482  0.15729720    -0.65400
O1251       O  0.43964254  0.51792762  0.13670450    -1.12000
C1252       C  0.43817503  0.49446467  0.00223199     1.06200
O1253       O  0.44674316  0.45316901  0.11918897    -0.78600
O1254       O  0.45809945  0.47726022  0.06566502    -0.66100
Ni1255     Ni  0.43200951  0.54052471  0.16205660     1.34900
C1256       C  0.46192442  0.49572572  0.06815712     0.85000
O1257       O  0.43584210  0.49424466  0.20579903    -0.79100
O1258       O  0.43565384  0.52920001  0.21313858    -0.89400
C1259       C  0.43895833  0.44804578  0.14452403     0.84500
O1260       O  0.41643244  0.52936259  0.16505947    -0.67600
O1261       O  0.43928897  0.47613895  0.01670790    -0.86900
C1262       C  0.41194528  0.51148672  0.15993392     0.85400
C1263       C  0.43612527  0.51073742  0.22710330     1.06900
H1264       H  0.42610328  0.48584259  0.08472319     0.38700
O1265       O  0.43428442  0.48759249  0.09236970    -1.09500
O1266       O  0.45542133  0.51118111  0.07686338    -0.66200
Ni1267     Ni  0.43858226  0.51540320  0.07988127     1.26300
O1268       O  0.41806259  0.49543805  0.15107669    -0.66400
O1269       O  0.43763756  0.51108809  0.02320829    -0.78700
C1270       C  0.43598808  0.55812837  0.08791642     0.84700
O1271       O  0.44214202  0.54421009  0.07095819    -0.65900
Ni1272     Ni  0.44272939  0.46530573  0.06868385     1.27400
Ni1273     Ni  0.43501001  0.49024872  0.14898926     1.26100
H1274       H  0.44789921  0.51908920  0.14379368     0.39300
O1275       O  0.42794973  0.55552729  0.61805605    -0.80700
O1276       O  0.43027891  0.46270071  0.65826707    -0.65400
O1277       O  0.43929698  0.51851245  0.63498426    -1.12000
C1278       C  0.43207714  0.49793580  0.50163713     1.06200
O1279       O  0.44184311  0.45051046  0.61036087    -0.78600
O1280       O  0.45376589  0.47636188  0.55986113    -0.66100
Ni1281     Ni  0.43312963  0.54123608  0.66474163     1.34900
C1282       C  0.45809321  0.49462490  0.55901569     0.85000
O1283       O  0.43763971  0.49391236  0.70433526    -0.79100
O1284       O  0.43784430  0.52859294  0.71386263    -0.89400
C1285       C  0.43563380  0.44777014  0.64142655     0.84500
O1286       O  0.41736502  0.53147949  0.67171795    -0.67600
O1287       O  0.43401179  0.47952437  0.51423874    -0.86900
C1288       C  0.41236897  0.51392743  0.66800696     0.85400
C1289       C  0.43870642  0.50991876  0.72650214     1.06900
H1290       H  0.42276550  0.48819173  0.58872238     0.38700
O1291       O  0.43122462  0.48911663  0.59249511    -1.09500
O1292       O  0.45211668  0.51089222  0.56711644    -0.66200
Ni1293     Ni  0.43573878  0.51695570  0.57919106     1.26300
O1294       O  0.41788421  0.49749960  0.65777525    -0.66400
O1295       O  0.43204058  0.51406672  0.52374468    -0.78700
C1296       C  0.43467233  0.56002274  0.58924510     0.84700
O1297       O  0.43970906  0.54569021  0.56952885    -0.65900
Ni1298     Ni  0.43783030  0.46638545  0.56367735     1.27400
Ni1299     Ni  0.43440764  0.49099941  0.64833994     1.26100
H1300       H  0.44778840  0.51902189  0.63812180     0.39300
O1301       O  0.31536187  0.55097768  0.27618199    -0.80700
O1302       O  0.31378887  0.45833902  0.23601863    -0.65400
O1303       O  0.30440570  0.51372841  0.25965013    -1.12000
C1304       C  0.31069492  0.49456426  0.39355337     1.06200
O1305       O  0.30352686  0.44450536  0.28603622    -0.78600
O1306       O  0.29009054  0.47093598  0.33091239    -0.66100
Ni1307     Ni  0.31030155  0.53670664  0.22973511     1.34900
C1308       C  0.28587233  0.48919747  0.33418301     0.85000
O1309       O  0.30612843  0.48943845  0.19059552    -0.79100
O1310       O  0.30572870  0.52412639  0.18080880    -0.89400
C1311       C  0.30875635  0.44299617  0.25266777     0.84500
O1312       O  0.32616230  0.52743756  0.22273007    -0.67600
O1313       O  0.30851155  0.47616177  0.38156934    -0.86900
C1314       C  0.33136404  0.51003450  0.22620425     0.85400
C1315       C  0.30506481  0.50547776  0.16836132     1.06900
H1316       H  0.32136236  0.48368257  0.30600917     0.38700
O1317       O  0.31289747  0.48451051  0.30234668    -1.09500
O1318       O  0.29193842  0.50561249  0.32827124    -0.66200
Ni1319     Ni  0.30813500  0.51232518  0.31519359     1.26300
O1320       O  0.32601702  0.49337011  0.23628250    -0.66400
O1321       O  0.31198171  0.51009111  0.37038690    -0.78700
C1322       C  0.30850002  0.55517227  0.30466014     0.84700
O1323       O  0.30370070  0.54071609  0.32454471    -0.65900
Ni1324     Ni  0.30622290  0.46189666  0.33193791     1.27400
Ni1325     Ni  0.30953193  0.48643694  0.24641085     1.26100
H1326       H  0.29589723  0.51400372  0.25677466     0.39300
O1327       O  0.31609973  0.55279986  0.78139035    -0.80700
O1328       O  0.31284585  0.46014386  0.73549658    -0.65400
O1329       O  0.30451134  0.51607814  0.75992458    -1.12000
C1330       C  0.30905864  0.49378860  0.89352296     1.06200
O1331       O  0.30094271  0.44723713  0.78192838    -0.78600
O1332       O  0.28844039  0.47322475  0.83107877    -0.66100
Ni1333     Ni  0.31177333  0.53890712  0.73303213     1.34900
C1334       C  0.28431322  0.49164803  0.83209560     0.85000
O1335       O  0.30656148  0.49237929  0.69046686    -0.79100
O1336       O  0.30818576  0.52705204  0.68203591    -0.89400
C1337       C  0.30721716  0.44506511  0.75079511     0.84500
O1338       O  0.32743480  0.52837544  0.73072473    -0.67600
O1339       O  0.30733281  0.47546023  0.88032866    -0.86900
C1340       C  0.33192676  0.51036324  0.73286570     0.85400
C1341       C  0.30673472  0.50866406  0.66868698     1.06900
H1342       H  0.31993859  0.48440625  0.80737712     0.38700
O1343       O  0.31154885  0.48562898  0.80242969    -1.09500
O1344       O  0.29051579  0.50776186  0.82492780    -0.66200
Ni1345     Ni  0.30708300  0.51344399  0.81585213     1.26300
O1346       O  0.32585869  0.49397694  0.73914182    -0.66400
O1347       O  0.30982790  0.50992849  0.87158132    -0.78700
C1348       C  0.30930097  0.55632712  0.81051748     0.84700
O1349       O  0.30316192  0.54194274  0.82591610    -0.65900
Ni1350     Ni  0.30432880  0.46281377  0.82966691     1.27400
Ni1351     Ni  0.30909128  0.48846004  0.74632383     1.26100
H1352       H  0.29610691  0.51725864  0.75515603     0.39300
O1353       O  0.42954365  0.20691871  0.27036240    -0.80700
O1354       O  0.43304217  0.29840735  0.22642775    -0.65400
O1355       O  0.44130470  0.24212586  0.24737651    -1.12000
C1356       C  0.43672699  0.26438000  0.38127201     1.06200
O1357       O  0.44693128  0.30811414  0.26867150    -0.78600
O1358       O  0.45765374  0.28370346  0.32382920    -0.66100
Ni1359     Ni  0.43373161  0.21974298  0.22108757     1.34900
C1360       C  0.46199886  0.26554959  0.32112633     0.85000
O1361       O  0.43885019  0.26635138  0.17882273    -0.79100
O1362       O  0.43740157  0.23157798  0.17016750    -0.89400
C1363       C  0.44000114  0.31212067  0.23991824     0.84500
O1364       O  0.41815776  0.23058169  0.21859413    -0.67600
O1365       O  0.43765060  0.28293562  0.36785160    -0.86900
C1366       C  0.41371196  0.24857959  0.22149677     0.85400
C1367       C  0.43887768  0.25006079  0.15702119     1.06900
H1368       H  0.42633480  0.27306910  0.29704755     0.38700
O1369       O  0.43469541  0.27196031  0.29124555    -1.09500
O1370       O  0.45601663  0.24976125  0.31048744    -0.66200
Ni1371     Ni  0.43936121  0.24422607  0.30377988     1.26300
O1372       O  0.41981612  0.26476912  0.22883618    -0.66400
O1373       O  0.43721176  0.24794587  0.35986459    -0.78700
C1374       C  0.43736880  0.20155527  0.29515424     0.84700
O1375       O  0.44346845  0.21541555  0.31248293    -0.65900
Ni1376     Ni  0.44206223  0.29467280  0.31746047     1.27400
Ni1377     Ni  0.43666346  0.26981621  0.23507969     1.26100
H1378       H  0.44964690  0.24092293  0.24149662     0.39300
O1379       O  0.43006986  0.20639950  0.76158139    -0.80700
O1380       O  0.43274878  0.29820243  0.72748720    -0.65400
O1381       O  0.44218634  0.24242677  0.74607400    -1.12000
C1382       C  0.43940335  0.26114799  0.88103308     1.06200
O1383       O  0.44616663  0.30961942  0.77041360    -0.78600
O1384       O  0.45958110  0.28149201  0.81194344    -0.66100
Ni1385     Ni  0.43584505  0.22030345  0.71550693     1.34900
C1386       C  0.46305585  0.26280960  0.81615890     0.85000
O1387       O  0.43867427  0.26743945  0.67833555    -0.79100
O1388       O  0.44118977  0.23311689  0.66761018    -0.89400
C1389       C  0.43894227  0.31275461  0.74199951     0.84500
O1390       O  0.42035841  0.23100580  0.70663898    -0.67600
O1391       O  0.44238305  0.27908472  0.86815060    -0.86900
C1392       C  0.41503152  0.24774222  0.71554794     0.85400
C1393       C  0.44056732  0.25189651  0.65558304     1.06900
H1394       H  0.42725363  0.27352308  0.79840165     0.38700
O1395       O  0.43550138  0.27157664  0.79168183    -1.09500
O1396       O  0.45617985  0.24722374  0.81267973    -0.66200
Ni1397     Ni  0.43946857  0.24323165  0.80240160     1.26300
O1398       O  0.42029053  0.26335038  0.73078376    -0.66400
O1399       O  0.43687263  0.24572310  0.85860626    -0.78700
C1400       C  0.43707508  0.20068377  0.78872267     0.84700
O1401       O  0.44263014  0.21411142  0.80911854    -0.65900
Ni1402     Ni  0.44406644  0.29301034  0.81787805     1.27400
Ni1403     Ni  0.43703662  0.26993100  0.73512649     1.26100
H1404       H  0.45063326  0.24214068  0.74160810     0.39300
O1405       O  0.31648817  0.20288109  0.11057417    -0.80700
O1406       O  0.31517159  0.29672575  0.15190113    -0.65400
O1407       O  0.30612190  0.24104220  0.12825118    -1.12000
C1408       C  0.31385113  0.26238068  0.99526431     1.06200
O1409       O  0.30380879  0.30935033  0.10371696    -0.78600
O1410       O  0.29201681  0.28422646  0.05161074    -0.66100
Ni1411     Ni  0.31250787  0.21807310  0.15732899     1.34900
C1412       C  0.28760563  0.26603637  0.05149591     0.85000
O1413       O  0.30783497  0.26544310  0.19808390    -0.79100
O1414       O  0.30912112  0.23086531  0.20721303    -0.89400
C1415       C  0.30976563  0.31173425  0.13539710     0.84500
O1416       O  0.32845331  0.22744601  0.15968363    -0.67600
O1417       O  0.31206884  0.28079579  0.00781408    -0.86900
C1418       C  0.33326012  0.24526692  0.15810318     0.85400
C1419       C  0.30789440  0.24929768  0.22032150     1.06900
H1420       H  0.32286949  0.27144496  0.08262619     0.38700
O1421       O  0.31438352  0.27069090  0.08618469    -1.09500
O1422       O  0.29350658  0.24978948  0.06043759    -0.66200
Ni1423     Ni  0.30975327  0.24309652  0.07251182     1.26300
O1424       O  0.32752050  0.26196187  0.15144017    -0.66400
O1425       O  0.31367974  0.24618643  0.01728814    -0.78700
C1426       C  0.30978247  0.19977373  0.08116897     0.84700
O1427       O  0.30532172  0.21483932  0.06197008    -0.65900
Ni1428     Ni  0.30803902  0.29371494  0.05711099     1.27400
Ni1429     Ni  0.31103936  0.26853093  0.14192364     1.26100
H1430       H  0.29762914  0.24043194  0.13144873     0.39300
O1431       O  0.31470429  0.19999486  0.61712314    -0.80700
O1432       O  0.31463867  0.29742406  0.65398811    -0.65400
O1433       O  0.30719367  0.24085030  0.62975723    -1.12000
C1434       C  0.31266520  0.26324457  0.49603337     1.06200
O1435       O  0.30309629  0.31001409  0.60648785    -0.78600
O1436       O  0.29106481  0.28245325  0.55945432    -0.66100
Ni1437     Ni  0.31558570  0.21982731  0.65903306     1.34900
C1438       C  0.28752966  0.26375786  0.55576123     0.85000
O1439       O  0.30754596  0.26573934  0.69815487    -0.79100
O1440       O  0.31682847  0.23557033  0.70705160    -0.89400
C1441       C  0.30913147  0.31241399  0.63798066     0.84500
O1442       O  0.33062098  0.22975671  0.64150342    -0.67600
O1443       O  0.30983167  0.28110355  0.50934521    -0.86900
C1444       C  0.33462633  0.24785375  0.64880014     0.85400
C1445       C  0.31196872  0.25185729  0.72045948     1.06900
H1446       H  0.32280625  0.27364335  0.58385761     0.38700
O1447       O  0.31438797  0.27169218  0.58759349    -1.09500
O1448       O  0.29419534  0.24804572  0.56156573    -0.66200
Ni1449     Ni  0.31075037  0.24352994  0.57370398     1.26300
O1450       O  0.32788219  0.26365977  0.65340617    -0.66400
O1451       O  0.31429131  0.24731813  0.51813004    -0.78700
C1452       C  0.31041738  0.19897247  0.58246866     0.84700
O1453       O  0.30761769  0.21485933  0.56201602    -0.65900
Ni1454     Ni  0.30670212  0.29390780  0.55962160     1.27400
Ni1455     Ni  0.31113259  0.26900853  0.64304965     1.26100
H1456       H  0.29880866  0.23878829  0.63360749     0.39300
O1457       O  0.44005162  0.69966052  0.00709123    -0.80700
O1458       O  0.43778948  0.79724846  0.97201233    -0.65400
O1459       O  0.44610073  0.74102853  0.99581496    -1.12000
C1460       C  0.43831366  0.76355116  0.12880798     1.06200
O1461       O  0.44990667  0.80874820  0.01866410    -0.78600
O1462       O  0.46087227  0.78262545  0.07142569    -0.66100
Ni1463     Ni  0.43858820  0.71959345  0.96556826     1.34900
C1464       C  0.46477965  0.76406310  0.07236644     0.85000
O1465       O  0.44541325  0.76625442  0.92699736    -0.79100
O1466       O  0.43683481  0.73558128  0.91807551    -0.89400
C1467       C  0.44358360  0.81187453  0.98798839     0.84500
O1468       O  0.42329461  0.72809149  0.98285118    -0.67600
O1469       O  0.44071222  0.78169822  0.11573700    -0.86900
C1470       C  0.41876701  0.74590001  0.97590603     0.85400
C1471       C  0.44118381  0.75229486  0.90458466     1.06900
H1472       H  0.42971406  0.77288543  0.04074472     0.38700
O1473       O  0.43816992  0.77130233  0.03752775    -1.09500
O1474       O  0.45842609  0.74827920  0.06435738    -0.66200
Ni1475     Ni  0.44200957  0.74341964  0.05170822     1.26300
O1476       O  0.42502964  0.76238158  0.97185169    -0.66400
O1477       O  0.43801453  0.74727147  0.10700709    -0.78700
C1478       C  0.44342240  0.69889781  0.04287929     0.84700
O1479       O  0.44525909  0.71487593  0.06409425    -0.65900
Ni1480     Ni  0.44520299  0.79384188  0.06592381     1.27400
Ni1481     Ni  0.44166407  0.76894774  0.98232734     1.26100
H1482       H  0.45455705  0.73959122  0.99273774     0.39300
O1483       O  0.43046818  0.70756146  0.51663128    -0.80700
O1484       O  0.43358048  0.79983689  0.47478555    -0.65400
O1485       O  0.44218059  0.74363508  0.49678757    -1.12000
C1486       C  0.43744560  0.76697789  0.63000039     1.06200
O1487       O  0.44800924  0.80911172  0.51526715    -0.78600
O1488       O  0.45889038  0.78474828  0.57002701    -0.66100
Ni1489     Ni  0.43531425  0.72103587  0.46884828     1.34900
C1490       C  0.46279645  0.76623529  0.57023431     0.85000
O1491       O  0.43901626  0.76776591  0.42682573    -0.79100
O1492       O  0.43955238  0.73299356  0.41875181    -0.89400
C1493       C  0.44079606  0.81338048  0.48749666     0.84500
O1494       O  0.41969926  0.73167148  0.46405087    -0.67600
O1495       O  0.43930973  0.78512410  0.61569054    -0.86900
C1496       C  0.41487964  0.74924546  0.46946484     0.85400
C1497       C  0.43976287  0.75151434  0.40509017     1.06900
H1498       H  0.42732414  0.77551100  0.54584106     0.38700
O1499       O  0.43563691  0.77379370  0.53980421    -1.09500
O1500       O  0.45641917  0.75049106  0.56201604    -0.66200
Ni1501     Ni  0.43967669  0.74595831  0.55330153     1.26300
O1502       O  0.42060585  0.76551897  0.47913216    -0.66400
O1503       O  0.43704593  0.75025632  0.60930007    -0.78700
C1504       C  0.43745784  0.70285853  0.54450777     0.84700
O1505       O  0.44297255  0.71697153  0.56334544    -0.65900
Ni1506     Ni  0.44343167  0.79631056  0.56478746     1.27400
Ni1507     Ni  0.43736477  0.77126657  0.48362874     1.26100
H1508       H  0.45059322  0.74281008  0.49194984     0.39300
O1509       O  0.31932413  0.70308189  0.36067064    -0.80700
O1510       O  0.31567583  0.79382253  0.40376271    -0.65400
O1511       O  0.30702408  0.73798288  0.38045460    -1.12000
C1512       C  0.31214493  0.76020070  0.24708238     1.06200
O1513       O  0.30270327  0.80508836  0.35937590    -0.78600
O1514       O  0.29062798  0.77952846  0.30962297    -0.66100
Ni1515     Ni  0.31397819  0.71534388  0.40867248     1.34900
C1516       C  0.28677357  0.76099614  0.30745959     0.85000
O1517       O  0.30965309  0.76149371  0.44998091    -0.79100
O1518       O  0.30921969  0.72666212  0.45863005    -0.89400
C1519       C  0.30977060  0.80846010  0.38799096     0.84500
O1520       O  0.32950264  0.72603570  0.41578273    -0.67600
O1521       O  0.30964066  0.77828525  0.26023317    -0.86900
C1522       C  0.33426632  0.74363948  0.41021074     0.85400
C1523       C  0.30883733  0.74523218  0.47179687     1.06900
H1524       H  0.32233139  0.76981039  0.33217306     0.38700
O1525       O  0.31397012  0.76816591  0.33752854    -1.09500
O1526       O  0.29327817  0.74508416  0.31352331    -0.66200
Ni1527     Ni  0.30993829  0.74025267  0.32423441     1.26300
O1528       O  0.32848638  0.75967657  0.39946403    -0.66400
O1529       O  0.31311924  0.74396326  0.26880656    -0.78700
C1530       C  0.31203759  0.69768599  0.33431927     0.84700
O1531       O  0.30652211  0.71143099  0.31457642    -0.65900
Ni1532     Ni  0.30633192  0.79056668  0.31095169     1.27400
Ni1533     Ni  0.31175914  0.76545393  0.39375149     1.26100
H1534       H  0.29859038  0.73707506  0.38470592     0.39300
O1535       O  0.32284721  0.70472839  0.86040510    -0.80700
O1536       O  0.31948103  0.79696380  0.89771125    -0.65400
O1537       O  0.31101608  0.74017603  0.88246861    -1.12000
C1538       C  0.31410616  0.75907598  0.74598022     1.06200
O1539       O  0.30536851  0.80555388  0.85526507    -0.78600
O1540       O  0.29398543  0.78005500  0.80289648    -0.66100
Ni1541     Ni  0.31885049  0.71819892  0.90917958     1.34900
C1542       C  0.28952700  0.76214309  0.80830722     0.85000
O1543       O  0.31425824  0.76552151  0.94895195    -0.79100
O1544       O  0.31541288  0.73075135  0.95934220    -0.89400
C1545       C  0.31271695  0.81054004  0.88221071     0.84500
O1546       O  0.33439851  0.72914619  0.91053591    -0.67600
O1547       O  0.31364763  0.77794862  0.75782168    -0.86900
C1548       C  0.33884225  0.74700206  0.90536110     0.85400
C1549       C  0.31426246  0.74944261  0.97160023     1.06900
H1550       H  0.32543185  0.76966891  0.82843755     0.38700
O1551       O  0.31712362  0.76890123  0.83527834    -1.09500
O1552       O  0.29547073  0.74666358  0.82110932    -0.66200
Ni1553     Ni  0.31223254  0.74103003  0.82578608     1.26300
O1554       O  0.33270631  0.76299263  0.89649198    -0.66400
O1555       O  0.31362510  0.74323125  0.76900180    -0.78700
C1556       C  0.31490293  0.69884272  0.83654198     0.84700
O1557       O  0.30817269  0.71216560  0.82023624    -0.65900
Ni1558     Ni  0.30968731  0.79096361  0.80734781     1.27400
Ni1559     Ni  0.31578775  0.76805136  0.89198885     1.26100
H1560       H  0.30274872  0.73914336  0.88961111     0.39300
O1561       O  0.43503614  0.05431483  0.35456350    -0.80700
O1562       O  0.43884985  0.96195326  0.40064973    -0.65400
O1563       O  0.44679089  0.01851900  0.37986339    -1.12000
C1564       C  0.44430334  0.99503816  0.24599275     1.06200
O1565       O  0.45364154  0.95265023  0.36156261    -0.78600
O1566       O  0.46496870  0.97727931  0.30734450    -0.66100
Ni1567     Ni  0.43857705  0.04091708  0.40427356     1.34900
C1568       C  0.46888404  0.99572966  0.30970340     0.85000
O1569       O  0.44308713  0.99459747  0.44868399    -0.79100
O1570       O  0.44163331  0.02943206  0.45582609    -0.89400
C1571       C  0.44601283  0.94826142  0.38809911     0.84500
O1572       O  0.42308071  0.02921708  0.40417911    -0.67600
O1573       O  0.44570393  0.97667399  0.25997248    -0.86900
C1574       C  0.41892306  0.01101195  0.40009070     0.85400
C1575       C  0.44270484  0.01107076  0.46988568     1.06900
H1576       H  0.43320653  0.98639902  0.32836121     0.38700
O1577       O  0.44141519  0.98799071  0.33578572    -1.09500
O1578       O  0.46250805  0.01122016  0.31940138    -0.66200
Ni1579     Ni  0.44570055  0.01582045  0.32340020     1.26300
O1580       O  0.42535457  0.99509012  0.39398631    -0.66400
O1581       O  0.44428531  0.01162166  0.26706541    -0.78700
C1582       C  0.44274350  0.05864572  0.32844236     0.84700
O1583       O  0.44938042  0.04457998  0.31428537    -0.65900
Ni1584     Ni  0.44951529  0.96549347  0.31145130     1.27400
Ni1585     Ni  0.44228584  0.99065263  0.39211494     1.26100
H1586       H  0.45502144  0.02003202  0.38706583     0.39300
O1587       O  0.43760556  0.05771492  0.86422300    -0.80700
O1588       O  0.43686644  0.96105071  0.90007391    -0.65400
O1589       O  0.44599561  0.01714956  0.87871140    -1.12000
C1590       C  0.43849212  0.99718391  0.74451160     1.06200
O1591       O  0.44814899  0.94894823  0.85146728    -0.78600
O1592       O  0.45978905  0.97462908  0.79965371    -0.66100
Ni1593     Ni  0.43916499  0.03939971  0.90879268     1.34900
C1594       C  0.46437571  0.99266592  0.80119687     0.85000
O1595       O  0.44475647  0.99117124  0.94654966    -0.79100
O1596       O  0.44031429  0.02454906  0.95798140    -0.89400
C1597       C  0.44212791  0.94615531  0.88290832     0.84500
O1598       O  0.42319073  0.03076535  0.90190918    -0.67600
O1599       O  0.43964990  0.97851576  0.75670055    -0.86900
C1600       C  0.41864220  0.01272970  0.90370878     0.85400
C1601       C  0.44294598  0.00637680  0.96990670     1.06900
H1602       H  0.42912427  0.98749756  0.83216675     0.38700
O1603       O  0.43761410  0.98800101  0.83547343    -1.09500
O1604       O  0.45870369  0.00882796  0.81179713    -0.66200
Ni1605     Ni  0.44248309  0.01563727  0.82279510     1.26300
O1606       O  0.42471082  0.99600708  0.90202996    -0.66400
O1607       O  0.43900466  0.01310312  0.76705898    -0.78700
C1608       C  0.44324036  0.05938977  0.83184062     0.84700
O1609       O  0.44704164  0.04380351  0.81266551    -0.65900
Ni1610     Ni  0.44378606  0.96513407  0.80553558     1.27400
Ni1611     Ni  0.44113587  0.98930675  0.89099683     1.26100
H1612       H  0.45446492  0.01794093  0.88233835     0.39300
O1613       O  0.32006222  0.05475725  0.00004297    -0.80700
O1614       O  0.31864901  0.96198449  0.95737087    -0.65400
O1615       O  0.30937656  0.01808506  0.97742743    -1.12000
C1616       C  0.31224922  0.99447171  0.11173319     1.06200
O1617       O  0.30359932  0.95257412  0.99538160    -0.78600
O1618       O  0.29176117  0.97642942  0.05089109    -0.66100
Ni1619     Ni  0.31666098  0.04098369  0.95121670     1.34900
C1620       C  0.28771178  0.99488826  0.05004489     0.85000
O1621       O  0.31390792  0.99418210  0.90823618    -0.79100
O1622       O  0.31388057  0.02898808  0.90006295    -0.89400
C1623       C  0.31143760  0.94820785  0.96948007     0.84500
O1624       O  0.33246733  0.03085242  0.95083600    -0.67600
O1625       O  0.31112113  0.97618114  0.09730592    -0.86900
C1626       C  0.33730736  0.01322164  0.95583801     0.85400
C1627       C  0.31379520  0.01050124  0.88639462     1.06900
H1628       H  0.32360725  0.98660651  0.02929149     0.38700
O1629       O  0.31539291  0.98799125  0.02179046    -1.09500
O1630       O  0.29396860  0.01052741  0.03998957    -0.66200
Ni1631     Ni  0.31078264  0.01557245  0.03442056     1.26300
O1632       O  0.33147288  0.99669457  0.96343448    -0.66400
O1633       O  0.31239100  0.01121787  0.09091082    -0.78700
C1634       C  0.31242566  0.05877538  0.02640609     0.84700
O1635       O  0.30685881  0.04422967  0.04382277    -0.65900
Ni1636     Ni  0.30745848  0.96521686  0.04580109     1.27400
Ni1637     Ni  0.31462170  0.99057402  0.96526055     1.26100
H1638       H  0.30106712  0.01877647  0.97080884     0.39300
O1639       O  0.32180075  0.05403600  0.49409001    -0.80700
O1640       O  0.31828347  0.96017811  0.45633878    -0.65400
O1641       O  0.31039883  0.01675574  0.47777746    -1.12000
C1642       C  0.31848080  0.99671719  0.61159979     1.06200
O1643       O  0.30672951  0.94976051  0.50572420    -0.78600
O1644       O  0.29637360  0.97559824  0.56000424    -0.66100
Ni1645     Ni  0.31698594  0.03903287  0.44780675     1.34900
C1646       C  0.29192658  0.99374361  0.55785748     0.85000
O1647       O  0.31121569  0.99145517  0.40946236    -0.79100
O1648       O  0.31263116  0.02599439  0.39902208    -0.89400
C1649       C  0.31274513  0.94592357  0.47467659     0.84500
O1650       O  0.33264559  0.02846557  0.44372149    -0.67600
O1651       O  0.31718759  0.97803537  0.59959575    -0.86900
C1652       C  0.33729150  0.01052841  0.44620723     0.85400
C1653       C  0.31093813  0.00745657  0.38691625     1.06900
H1654       H  0.32684282  0.98655908  0.52399397     0.38700
O1655       O  0.31835909  0.98744219  0.52091045    -1.09500
O1656       O  0.29763118  0.00952308  0.54538893    -0.66200
Ni1657     Ni  0.31396277  0.01535396  0.53345252     1.26300
O1658       O  0.33138781  0.99417327  0.45417970    -0.66400
O1659       O  0.31762849  0.01272049  0.58913590    -0.78700
C1660       C  0.31496015  0.05843128  0.52263510     0.84700
O1661       O  0.30990409  0.04404851  0.54218872    -0.65900
Ni1662     Ni  0.31206067  0.96504958  0.55143552     1.27400
Ni1663     Ni  0.31478758  0.98884461  0.46521715     1.26100
H1664       H  0.30192006  0.01776982  0.47461130     0.39300
C1665       C  0.31784869  0.99593716  0.78678039     0.30000
C1666       C  0.32075199  0.98273719  0.75508007    -0.36400
C1667       C  0.32086336  0.99193223  0.71722588     0.16000
C1668       C  0.31834723  0.01270372  0.71084106     0.21800
C1669       C  0.31558184  0.02595920  0.74258717    -0.34500
C1670       C  0.31539918  0.01673020  0.78041508     0.15900
O1671       O  0.31714947  0.99063674  0.82466855    -0.26500
C1672       C  0.31418589  0.00828616  0.84281612     0.05700
C1673       C  0.31299219  0.02499786  0.81666395    -0.31400
O1674       O  0.31797314  0.01756881  0.67272626    -0.23200
C1675       C  0.32028907  0.99966875  0.65446907    -0.03200
C1676       C  0.32225504  0.98325672  0.68074985    -0.17600
H1677       H  0.32254821  0.96634452  0.75949950     0.20400
H1678       H  0.31341307  0.04220192  0.73801526     0.18700
H1679       H  0.31093654  0.04105284  0.82354668     0.18700
H1680       H  0.32364617  0.96698000  0.67388380     0.14500
C1681       C  0.30985408  0.99168964  0.28739670     0.30000
C1682       C  0.31110735  0.97806030  0.25511909    -0.36400
C1683       C  0.31176199  0.98745663  0.21745999     0.16000
C1684       C  0.31118957  0.00873617  0.21187871     0.21800
C1685       C  0.30981977  0.02228871  0.24401272    -0.34500
C1686       C  0.30915980  0.01293080  0.28152611     0.15900
O1687       O  0.30991374  0.98657908  0.32546148    -0.26500
C1688       C  0.30919113  0.00484124  0.34396727     0.05700
C1689       C  0.30858829  0.02167639  0.31801036    -0.31400
O1690       O  0.31180253  0.01416462  0.17414448    -0.23200
C1691       C  0.31278788  0.99612242  0.15519836    -0.03200
C1692       C  0.31283050  0.97898755  0.18066799    -0.17600
H1693       H  0.31172191  0.96137079  0.25909788     0.20400
H1694       H  0.30941918  0.03900080  0.24009216     0.18700
H1695       H  0.30850578  0.03810964  0.32507826     0.18700
H1696       H  0.31318481  0.96263683  0.17303374     0.14500
C1697       C  0.38851031  0.02157029  0.92099976     0.30000
C1698       C  0.37845858  0.03380496  0.92765902    -0.36400
C1699       C  0.36809452  0.02303826  0.93742691     0.16000
C1700       C  0.36752176  0.00164034  0.94040846     0.21800
C1701       C  0.37765709  0.98931886  0.93377036    -0.34500
C1702       C  0.38810463  0.00014818  0.92395290     0.15900
O1703       O  0.39914973  0.02860187  0.91240905    -0.26500
C1704       C  0.40574643  0.01152290  0.90963103     0.05700
C1705       C  0.39934848  0.99330188  0.91644295    -0.31400
O1706       O  0.35668308  0.99498605  0.94867552    -0.23200
C1707       C  0.35031807  0.01245475  0.95108312    -0.03200
C1708       C  0.35702913  0.03027847  0.94444672    -0.17600
H1709       H  0.37870001  0.05060913  0.92536460     0.20400
H1710       H  0.37741179  0.97251575  0.93592917     0.18700
H1711       H  0.40258662  0.97744321  0.91695061     0.18700
H1712       H  0.35407474  0.04631024  0.94359049     0.14500
C1713       C  0.43968659  0.01310341  0.64520666     0.30000
C1714       C  0.44248462  0.02636797  0.61341770    -0.36400
C1715       C  0.44250786  0.01719669  0.57562713     0.16000
C1716       C  0.43996970  0.99642961  0.56947336     0.21800
C1717       C  0.43714130  0.98320948  0.60118642    -0.34500
C1718       C  0.43710184  0.99237116  0.63890132     0.15900
O1719       O  0.43980311  0.01800377  0.68327449    -0.26500
C1720       C  0.43723557  0.00015678  0.70146834     0.05700
C1721       C  0.43541350  0.98374994  0.67525753    -0.31400
O1722       O  0.44023513  0.99124886  0.53161907    -0.23200
C1723       C  0.44295049  0.00894467  0.51325185    -0.03200
C1724       C  0.44450113  0.02559050  0.53915231    -0.17600
H1725       H  0.44460507  0.04262448  0.61785503     0.20400
H1726       H  0.43516851  0.96689166  0.59679389     0.18700
H1727       H  0.43378439  0.96753443  0.68214889     0.18700
H1728       H  0.44641467  0.04167437  0.53197797     0.14500
C1729       C  0.44282839  0.98863439  0.14286855     0.30000
C1730       C  0.44348288  0.97768370  0.10682397    -0.36400
C1731       C  0.44341920  0.98987571  0.07217904     0.16000
C1732       C  0.44261543  0.01130719  0.07317742     0.21800
C1733       C  0.44187956  0.02221385  0.10909624    -0.34500
C1734       C  0.44205313  0.01007101  0.14362157     0.15900
O1735       O  0.44337969  0.98050778  0.17879248    -0.26500
C1736       C  0.44294870  0.99695467  0.20277622     0.05700
C1737       C  0.44206828  0.01576543  0.18252818    -0.31400
O1738       O  0.44262073  0.01966620  0.03753075    -0.23200
C1739       C  0.44351867  0.00347770  0.01314616    -0.03200
C1740       C  0.44406116  0.98446016  0.03298425    -0.17600
H1741       H  0.44419300  0.96089012  0.10590280     0.20400
H1742       H  0.44136333  0.03903093  0.11003816     0.18700
H1743       H  0.44190210  0.03135589  0.19466757     0.18700
H1744       H  0.44457568  0.96899387  0.02039494     0.14500
C1745       C  0.36731062  0.99825923  0.42747659     0.30000
C1746       C  0.37747447  0.98596939  0.42030545    -0.36400
C1747       C  0.38811229  0.99696347  0.41333668     0.16000
C1748       C  0.38857624  0.01843540  0.41356521     0.21800
C1749       C  0.37853600  0.03053888  0.42051965    -0.34500
C1750       C  0.36804971  0.01968563  0.42736774     0.15900
O1751       O  0.35637429  0.99168592  0.43470968    -0.26500
C1752       C  0.35018579  0.00928364  0.43912684     0.05700
C1753       C  0.35706813  0.02703423  0.43486224    -0.31400
O1754       O  0.39928456  0.02575933  0.40789298    -0.23200
C1755       C  0.40597469  0.00892694  0.40371729    -0.03200
C1756       C  0.39951919  0.99041917  0.40667368    -0.17600
H1757       H  0.37713527  0.96913396  0.42039300     0.20400
H1758       H  0.37890372  0.04737347  0.42091272     0.18700
H1759       H  0.35433309  0.04315940  0.43675300     0.18700
H1760       H  0.40279888  0.97459818  0.40546047     0.14500
C1761       C  0.30734908  0.86267882  0.90619967     0.30000
C1762       C  0.30058755  0.88089536  0.90964955    -0.36400
C1763       C  0.30627914  0.89795800  0.92705062     0.16000
C1764       C  0.31793679  0.89735568  0.93926325     0.21800
C1765       C  0.32467533  0.87903486  0.93617187    -0.34500
C1766       C  0.31887602  0.86177720  0.91966011     0.15900
O1767       O  0.30370861  0.84484504  0.89135650    -0.26500
C1768       C  0.31292664  0.83219474  0.89604610     0.05700
C1769       C  0.32262419  0.84183928  0.91357252    -0.31400
O1770       O  0.32144517  0.91517554  0.95474082    -0.23200
C1771       C  0.31185247  0.92716926  0.95283761    -0.03200
C1772       C  0.30213369  0.91725172  0.93624372    -0.17600
H1773       H  0.29146369  0.88161410  0.89998186     0.20400
H1774       H  0.33373260  0.87820429  0.94648489     0.18700
H1775       H  0.33120585  0.83520611  0.92023809     0.18700
H1776       H  0.29329963  0.92336363  0.93187739     0.14500
C1777       C  0.30967181  0.74000204  0.57497589     0.30000
C1778       C  0.31078555  0.72932080  0.61121956    -0.36400
C1779       C  0.31254731  0.74177944  0.64486604     0.16000
C1780       C  0.31317367  0.76321491  0.64280390     0.21800
C1781       C  0.31206002  0.77385043  0.60666162    -0.34500
C1782       C  0.31024762  0.76144130  0.57315161     0.15900
O1783       O  0.30847601  0.73151461  0.53962783    -0.26500
C1784       C  0.30820500  0.74775044  0.51498014     0.05700
C1785       C  0.30922015  0.76677061  0.53422129    -0.31400
O1786       O  0.31437335  0.77188349  0.67788885    -0.23200
C1787       C  0.31455099  0.75586074  0.70291629    -0.03200
C1788       C  0.31349040  0.73667765  0.68407847    -0.17600
H1789       H  0.31032953  0.71251663  0.61302923     0.20400
H1790       H  0.31251688  0.79065326  0.60484411     0.18700
H1791       H  0.30977386  0.78216713  0.52122026     0.18700
H1792       H  0.31290664  0.72137406  0.69745339     0.14500
C1793       C  0.31293860  0.76650354  0.14417989     0.30000
C1794       C  0.31190510  0.77740770  0.10819354    -0.36400
C1795       C  0.31246435  0.76530476  0.07367340     0.16000
C1796       C  0.31390677  0.74397056  0.07470146     0.21800
C1797       C  0.31495668  0.73308889  0.11063342    -0.34500
C1798       C  0.31444854  0.74518286  0.14507456     0.15900
O1799       O  0.31231392  0.77459445  0.17997132    -0.26500
C1800       C  0.31349145  0.75826775  0.20403476     0.05700
C1801       C  0.31489092  0.73954205  0.18401308    -0.31400
O1802       O  0.31440315  0.73576083  0.03904410    -0.23200
C1803       C  0.31328689  0.75198796  0.01473055    -0.03200
C1804       C  0.31202619  0.77083208  0.03455919    -0.17600
H1805       H  0.31071980  0.79412069  0.10721134     0.20400
H1806       H  0.31610046  0.71636604  0.11163381     0.18700
H1807       H  0.31568039  0.72402449  0.19633323     0.18700
H1808       H  0.31119108  0.78629247  0.02202805     0.14500
C1809       C  0.31362706  0.89212833  0.46015026     0.30000
C1810       C  0.31472798  0.87115264  0.47136465    -0.36400
C1811       C  0.31315218  0.85652354  0.44098762     0.16000
C1812       C  0.31042307  0.86221075  0.40249540     0.21800
C1813       C  0.30953702  0.88316697  0.39114431    -0.34500
C1814       C  0.31137237  0.89779060  0.42129724     0.15900
O1815       O  0.31443951  0.90833002  0.48388155    -0.26500
C1816       C  0.31294429  0.92454873  0.45977649     0.05700
C1817       C  0.31108164  0.91899719  0.42042010    -0.31400
O1818       O  0.30884303  0.84604863  0.37919648    -0.23200
C1819       C  0.31077325  0.82978863  0.40280467    -0.03200
C1820       C  0.31358176  0.83529611  0.44159477    -0.17600
H1821       H  0.31661187  0.86657566  0.50166699     0.20400
H1822       H  0.30750460  0.88773253  0.36094361     0.18700
H1823       H  0.30936223  0.92907462  0.39526318     0.18700
H1824       H  0.31539073  0.82516401  0.46660251     0.14500
C1825       C  0.43850703  0.89936324  0.42595761     0.30000
C1826       C  0.43086551  0.88346297  0.43846579    -0.36400
C1827       C  0.43626252  0.86457139  0.44873448     0.16000
C1828       C  0.44837367  0.86172032  0.44778424     0.21800
C1829       C  0.45600032  0.87748232  0.43455486    -0.34500
C1830       C  0.45057338  0.89621413  0.42338643     0.15900
O1831       O  0.43535747  0.91824082  0.41486574    -0.26500
C1832       C  0.44550798  0.92715858  0.40444706     0.05700
C1833       C  0.45527059  0.91418125  0.40883891    -0.31400
O1834       O  0.45155563  0.84321145  0.46079931    -0.23200
C1835       C  0.44133788  0.83395377  0.46917678    -0.03200
C1836       C  0.43151171  0.84639809  0.46211372    -0.17600
H1837       H  0.42138202  0.88567168  0.44006654     0.20400
H1838       H  0.46549033  0.87530641  0.43316818     0.18700
H1839       H  0.46445738  0.91755447  0.40238856     0.18700
H1840       H  0.42229474  0.84286156  0.46768859     0.14500
C1841       C  0.38514929  0.73887520  0.45031101     0.30000
C1842       C  0.37551733  0.72589907  0.44244695    -0.36400
C1843       C  0.36494263  0.73590108  0.43258160     0.16000
C1844       C  0.36382971  0.75726275  0.43035646     0.21800
C1845       C  0.37354032  0.77034895  0.43839193    -0.34500
C1846       C  0.38419592  0.76028114  0.44858512     0.15900
O1847       O  0.39589255  0.73256306  0.45895577    -0.26500
C1848       C  0.40202089  0.75004583  0.46323021     0.05700
C1849       C  0.39521137  0.76790257  0.45731182    -0.31400
O1850       O  0.35293618  0.76310411  0.42107498    -0.23200
C1851       C  0.34708941  0.74517541  0.41750289    -0.03200
C1852       C  0.35415842  0.72782063  0.42430459    -0.17600
H1853       H  0.37623473  0.70910882  0.44385396     0.20400
H1854       H  0.37283511  0.78713161  0.43687449     0.18700
H1855       H  0.39805462  0.78398327  0.45783449     0.18700
H1856       H  0.35163867  0.71156330  0.42398203     0.14500
C1857       C  0.44052453  0.76847250  0.80499862     0.30000
C1858       C  0.44124465  0.78214583  0.77259351    -0.36400
C1859       C  0.43858164  0.77354192  0.73536569     0.16000
C1860       C  0.43552152  0.75291135  0.73016613     0.21800
C1861       C  0.43466936  0.73933794  0.76254092    -0.34500
C1862       C  0.43728080  0.74794332  0.79967429     0.15900
O1863       O  0.44265479  0.77300358  0.84262417    -0.26500
C1864       C  0.44070021  0.75507691  0.86135908     0.05700
C1865       C  0.43734427  0.73904931  0.83606034    -0.31400
O1866       O  0.43421845  0.74785757  0.69246617    -0.23200
C1867       C  0.43635463  0.76556175  0.67331485    -0.03200
C1868       C  0.43902508  0.78206151  0.69853198    -0.17600
H1869       H  0.44383872  0.79825529  0.77604606     0.20400
H1870       H  0.43233902  0.72310906  0.75898307     0.18700
H1871       H  0.43513890  0.72311901  0.84355390     0.18700
H1872       H  0.44159573  0.79776994  0.69067038     0.14500
C1873       C  0.43748622  0.74901797  0.22920422     0.30000
C1874       C  0.43920333  0.73570046  0.26173512    -0.36400
C1875       C  0.43957352  0.74522112  0.29917963     0.16000
C1876       C  0.43823205  0.76637889  0.30460233     0.21800
C1877       C  0.43647267  0.77973139  0.27202833    -0.34500
C1878       C  0.43618638  0.77020435  0.23446797     0.15900
O1879       O  0.43767073  0.74359566  0.19136355    -0.26500
C1880       C  0.43648735  0.76155670  0.17202294     0.05700
C1881       C  0.43545162  0.77859240  0.19741433    -0.31400
O1882       O  0.43860454  0.77176601  0.34251146    -0.23200
C1883       C  0.44028105  0.75377964  0.36149999    -0.03200
C1884       C  0.44097828  0.73682373  0.33590373    -0.17600
H1885       H  0.44036926  0.71909145  0.25807067     0.20400
H1886       H  0.43552417  0.79638756  0.27564098     0.18700
H1887       H  0.43494608  0.79492640  0.18961536     0.18700
H1888       H  0.44193560  0.72051815  0.34342955     0.14500
C1889       C  0.44325704  0.86516399  0.96662291     0.30000
C1890       C  0.44352798  0.88650928  0.97526371    -0.36400
C1891       C  0.44236142  0.89996660  0.94269051     0.16000
C1892       C  0.44126017  0.89289625  0.90416191     0.21800
C1893       C  0.44071570  0.87154738  0.89561209    -0.34500
C1894       C  0.44166740  0.85809017  0.92829242     0.15900
O1895       O  0.44434490  0.84986237  0.99247838    -0.26500
C1896       C  0.44323598  0.83278331  0.97053793     0.05700
C1897       C  0.44148558  0.83691383  0.93041177    -0.31400
O1898       O  0.44099764  0.90820263  0.87806608    -0.23200
C1899       C  0.44170182  0.92526333  0.90026404    -0.03200
C1900       C  0.44245856  0.92114109  0.94070230    -0.17600
H1901       H  0.44465094  0.89221871  0.00524899     0.20400
H1902       H  0.43972413  0.86583595  0.86557362     0.18700
H1903       H  0.44039115  0.82591208  0.90637863     0.18700
H1904       H  0.44338596  0.93212670  0.96484217     0.14500
C1905       C  0.36852969  0.73832618  0.92887127     0.30000
C1906       C  0.37806090  0.72599148  0.94116090    -0.36400
C1907       C  0.38832321  0.73664875  0.95212786     0.16000
C1908       C  0.38930333  0.75803339  0.95060269     0.21800
C1909       C  0.37967444  0.77048165  0.93832892    -0.34500
C1910       C  0.36927687  0.75975531  0.92760592     0.15900
O1911       O  0.35797488  0.73139460  0.91938703    -0.26500
C1912       C  0.35171724  0.74847719  0.91180036     0.05700
C1913       C  0.35830144  0.76670066  0.91619211    -0.31400
O1914       O  0.40004107  0.76448286  0.96045083    -0.23200
C1915       C  0.40588447  0.74693648  0.96881765    -0.03200
C1916       C  0.39896405  0.72922446  0.96429142    -0.17600
H1917       H  0.37747396  0.70918463  0.94239966     0.20400
H1918       H  0.38024367  0.78728714  0.93724834     0.18700
H1919       H  0.35529213  0.78263490  0.91342573     0.18700
H1920       H  0.40159337  0.71309496  0.96743964     0.14500
C1921       C  0.30590576  0.14584051  0.57009622     0.30000
C1922       C  0.30320709  0.12561627  0.58319352    -0.36400
C1923       C  0.30744913  0.10932651  0.55947230     0.16000
C1924       C  0.31392950  0.11280396  0.52534739     0.21800
C1925       C  0.31643248  0.13301940  0.51186980    -0.34500
C1926       C  0.31211163  0.14930817  0.53538858     0.15900
O1927       O  0.30389029  0.16315138  0.58977918    -0.26500
C1928       C  0.30860035  0.17795336  0.56701614     0.05700
C1929       C  0.31379571  0.17030874  0.53261144    -0.31400
O1930       O  0.31746740  0.09539901  0.50859760    -0.23200
C1931       C  0.31317733  0.08052072  0.53209107    -0.03200
C1932       C  0.30679478  0.08822994  0.56420599    -0.17600
H1933       H  0.29847797  0.12278746  0.61064392     0.20400
H1934       H  0.32166326  0.13582955  0.48546033     0.18700
H1935       H  0.31897883  0.17872750  0.51083250     0.18700
H1936       H  0.30242668  0.07959348  0.58763082     0.14500
C1937       C  0.30951632  0.11277026  0.02713924     0.30000
C1938       C  0.30996818  0.13284173  0.01071722    -0.36400
C1939       C  0.30817297  0.14927467  0.03728587     0.16000
C1940       C  0.30633113  0.14606746  0.07737862     0.21800
C1941       C  0.30562154  0.12598100  0.09365253    -0.34500
C1942       C  0.30718458  0.10953778  0.06693206     0.15900
O1943       O  0.31155251  0.09531006  0.00807584    -0.26500
C1944       C  0.31029544  0.08067225  0.03574219     0.05700
C1945       C  0.30748315  0.08852486  0.07298508    -0.31400
O1946       O  0.30616078  0.16356782  0.09747559    -0.23200
C1947       C  0.30764310  0.17818214  0.06989457    -0.03200
C1948       C  0.30882914  0.17029326  0.03173807    -0.17600
H1949       H  0.31190324  0.13545823  0.97961512     0.20400
H1950       H  0.30429370  0.12338879  0.12511849     0.18700
H1951       H  0.30633992  0.08008866  0.10058330     0.18700
H1952       H  0.31082136  0.17867180  0.00462147     0.14500
C1953       C  0.31412948  0.24613304  0.82303343     0.30000
C1954       C  0.31594157  0.23520457  0.85860418    -0.36400
C1955       C  0.31593790  0.24723086  0.89320275     0.16000
C1956       C  0.31432404  0.26853161  0.89260476     0.21800
C1957       C  0.31245798  0.27943742  0.85705146    -0.34500
C1958       C  0.31234732  0.26739331  0.82250423     0.15900
O1959       O  0.31398414  0.23803028  0.78727723    -0.26500
C1960       C  0.31195219  0.25422873  0.76358055     0.05700
C1961       C  0.31078822  0.27294938  0.78376519    -0.31400
O1962       O  0.31404611  0.27656446  0.92840716    -0.23200
C1963       C  0.31545306  0.26025782  0.95233933    -0.03200
C1964       C  0.31674020  0.24153735  0.93213644    -0.17600
H1965       H  0.31715205  0.21849157  0.85924764     0.20400
H1966       H  0.31100946  0.29609167  0.85647386     0.18700
H1967       H  0.30940111  0.28837124  0.77160398     0.18700
H1968       H  0.31749604  0.22598939  0.94433875     0.14500
C1969       C  0.31219071  0.24810255  0.39582123     0.30000
C1970       C  0.31119650  0.23431009  0.36373166    -0.36400
C1971       C  0.30931734  0.24344391  0.32630573     0.16000
C1972       C  0.30856947  0.26468010  0.32051041     0.21800
C1973       C  0.30953344  0.27847159  0.35262637    -0.34500
C1974       C  0.31136676  0.26933557  0.39008568     0.15900
O1975       O  0.31340262  0.24296890  0.43368737    -0.26500
C1976       C  0.31337680  0.26119718  0.45244787     0.05700
C1977       C  0.31218315  0.27808136  0.42668127    -0.31400
O1978       O  0.30737793  0.26980032  0.28260888    -0.23200
C1979       C  0.30726546  0.25154667  0.26392658    -0.03200
C1980       C  0.30837327  0.23467592  0.28978826    -0.17600
H1981       H  0.31178910  0.21761551  0.36765972     0.20400
H1982       H  0.30892124  0.29516348  0.34870904     0.18700
H1983       H  0.31142595  0.29441915  0.43409212     0.18700
H1984       H  0.30903007  0.21831190  0.28247311     0.14500
C1985       C  0.43911001  0.14656015  0.78274277     0.30000
C1986       C  0.43729455  0.12675459  0.76618971    -0.36400
C1987       C  0.44172483  0.10990896  0.78823366     0.16000
C1988       C  0.44743095  0.11254754  0.82413400     0.21800
C1989       C  0.44946124  0.13230778  0.84014578    -0.34500
C1990       C  0.44509041  0.14906618  0.81813958     0.15900
O1991       O  0.43530774  0.16438849  0.76823603    -0.26500
C1992       C  0.43896852  0.17839333  0.79462754     0.05700
C1993       C  0.44514831  0.16979362  0.82620835    -0.31400
O1994       O  0.44946202  0.09483889  0.84236248    -0.23200
C1995       C  0.44526732  0.08055322  0.81766229    -0.03200
C1996       C  0.44039761  0.08893254  0.78322876    -0.17600
H1997       H  0.43242029  0.12460085  0.73883926     0.20400
H1998       H  0.45371545  0.13440337  0.86865155     0.18700
H1999       H  0.44902740  0.17765219  0.85144785     0.18700
H2000       H  0.43551769  0.08094650  0.76018663     0.14500
C2001       C  0.38491273  0.25916398  0.69668549     0.30000
C2002       C  0.37443563  0.27105477  0.69397202    -0.36400
C2003       C  0.36454521  0.26094649  0.67718322     0.16000
C2004       C  0.36498535  0.24059159  0.66420530     0.21800
C2005       C  0.37536077  0.22880432  0.66699233    -0.34500
C2006       C  0.38515372  0.23883358  0.68360761     0.15900
O2007       O  0.39532463  0.26530341  0.71067841    -0.26500
C2008       C  0.40221847  0.24854891  0.70646965     0.05700
C2009       C  0.39627823  0.23172380  0.68988240    -0.31400
O2010       O  0.35472461  0.23379969  0.65102518    -0.23200
C2011       C  0.34749120  0.24996450  0.65520418    -0.03200
C2012       C  0.35311523  0.26736878  0.67133361    -0.17600
H2013       H  0.37400803  0.28698098  0.70429244     0.20400
H2014       H  0.37574809  0.21279240  0.65712477     0.18700
H2015       H  0.39974828  0.21647212  0.68270252     0.18700
H2016       H  0.34922181  0.28218290  0.67931742     0.14500
C2017       C  0.43579655  0.14742681  0.29543681     0.30000
C2018       C  0.43052047  0.12826326  0.28699120    -0.36400
C2019       C  0.43703626  0.11061294  0.29747476     0.16000
C2020       C  0.44809577  0.11163858  0.31472667     0.21800
C2021       C  0.45344881  0.13096173  0.32298454    -0.34500
C2022       C  0.44680432  0.14875406  0.31297645     0.15900
O2023       O  0.43107589  0.16573086  0.28841564    -0.26500
C2024       C  0.43902660  0.17917550  0.30192831     0.05700
C2025       C  0.44905397  0.16957057  0.31766242    -0.31400
O2026       O  0.45207937  0.09306653  0.32516037    -0.23200
C2027       C  0.44346215  0.08014074  0.31417521    -0.03200
C2028       C  0.43389204  0.09022494  0.29700714    -0.17600
H2029       H  0.42176879  0.12720532  0.27410824     0.20400
H2030       H  0.46198911  0.13203463  0.33735810     0.18700
H2031       H  0.45693113  0.17682210  0.32954711     0.18700
H2032       H  0.42547992  0.08362341  0.28824891     0.14500
C2033       C  0.44055494  0.24753197  0.55265622     0.30000
C2034       C  0.43994392  0.23667076  0.51674632    -0.36400
C2035       C  0.43783761  0.24875456  0.48293845     0.16000
C2036       C  0.43656976  0.27011398  0.48424925     0.21800
C2037       C  0.43712474  0.28101190  0.52030026    -0.34500
C2038       C  0.43914663  0.26886448  0.55427420     0.15900
O2039       O  0.44188281  0.23910747  0.58792798    -0.26500
C2040       C  0.44132132  0.25517285  0.61264101     0.05700
C2041       C  0.43966201  0.27416062  0.59343196    -0.31400
O2042       O  0.43537578  0.27835783  0.44864103    -0.23200
C2043       C  0.43578319  0.26202818  0.42438971    -0.03200
C2044       C  0.43720192  0.24318957  0.44411791    -0.17600
H2045       H  0.44098676  0.21993895  0.51531579     0.20400
H2046       H  0.43609056  0.29774525  0.52172478     0.18700
H2047       H  0.43839673  0.28938615  0.60650163     0.18700
H2048       H  0.43835116  0.22782793  0.43151877     0.14500
C2049       C  0.44077182  0.24415869  0.05401030     0.30000
C2050       C  0.44034375  0.23316183  0.01806567    -0.36400
C2051       C  0.44013669  0.24529714  0.98344484     0.16000
C2052       C  0.44052916  0.26676324  0.98423909     0.21800
C2053       C  0.44108092  0.27776331  0.02016245    -0.34500
C2054       C  0.44113150  0.26563096  0.05479057     0.15900
O2055       O  0.44028569  0.23595947  0.08982859    -0.26500
C2056       C  0.44035803  0.25235192  0.11392184     0.05700
C2057       C  0.44091733  0.27126165  0.09380025    -0.31400
O2058       O  0.44012806  0.27499943  0.94845646    -0.23200
C2059       C  0.43932152  0.25864733  0.92438036    -0.03200
C2060       C  0.43933373  0.23971224  0.94446060    -0.17600
H2061       H  0.43990273  0.21634069  0.01721265     0.20400
H2062       H  0.44121092  0.29460344  0.02104708     0.18700
H2063       H  0.44071824  0.28682538  0.10605667     0.18700
H2064       H  0.43898557  0.22417852  0.93212654     0.14500
C2065       C  0.36294814  0.25801421  0.17849751     0.30000
C2066       C  0.37280013  0.27085668  0.18614783    -0.36400
C2067       C  0.38326523  0.26057981  0.19780290     0.16000
C2068       C  0.38389910  0.23919992  0.20129617     0.21800
C2069       C  0.37414456  0.22646239  0.19358145    -0.34500
C2070       C  0.36376964  0.23666963  0.18216693     0.15900
O2071       O  0.35215923  0.26411165  0.16845288    -0.26500
C2072       C  0.34609328  0.24636172  0.16565822     0.05700
C2073       C  0.35291940  0.22886066  0.17377081    -0.31400
O2074       O  0.39448774  0.23263156  0.21134237    -0.23200
C2075       C  0.40086088  0.24991258  0.21469546    -0.03200
C2076       C  0.39434670  0.26790868  0.20672632    -0.17600
H2077       H  0.37232579  0.28762196  0.18338948     0.20400
H2078       H  0.37462137  0.20968955  0.19630653     0.18700
H2079       H  0.35018212  0.21271579  0.17449792     0.18700
H2080       H  0.39742475  0.28385375  0.20605857     0.14500
C2081       C  0.31734523  0.64491049  0.83665207     0.30000
C2082       C  0.32274985  0.62585034  0.84553446    -0.36400
C2083       C  0.31591147  0.60810788  0.83849733     0.16000
C2084       C  0.30450366  0.60904110  0.82395054     0.21800
C2085       C  0.29910569  0.62817734  0.81495365    -0.34500
C2086       C  0.30600551  0.64596585  0.82157488     0.15900
O2087       O  0.32204940  0.66336897  0.84196713    -0.26500
C2088       C  0.31370326  0.67648595  0.82975827     0.05700
C2089       C  0.30352267  0.66659359  0.81639272    -0.31400
O2090       O  0.30017412  0.59046166  0.81607091    -0.23200
C2091       C  0.30888839  0.57751722  0.82589538    -0.03200
C2092       C  0.31890096  0.58763441  0.83992153    -0.17600
H2093       H  0.33173520  0.62491962  0.85652803     0.20400
H2094       H  0.29027090  0.62909038  0.80268955     0.18700
H2095       H  0.29531665  0.67357529  0.80648398     0.18700
H2096       H  0.32748880  0.58099062  0.84651080     0.14500
C2097       C  0.30836696  0.39215707  0.72630438     0.30000
C2098       C  0.30879264  0.37066984  0.73385183    -0.36400
C2099       C  0.30933761  0.35775444  0.70036602     0.16000
C2100       C  0.30923183  0.36546120  0.66206135     0.21800
C2101       C  0.30909321  0.38697820  0.65451890    -0.34500
C2102       C  0.30875870  0.39990946  0.68804957     0.15900
O2103       O  0.30760539  0.40697896  0.75320002    -0.26500
C2104       C  0.30773457  0.42447540  0.73200457     0.05700
C2105       C  0.30851356  0.42107647  0.69127791    -0.31400
O2106       O  0.30913035  0.35055947  0.63518236    -0.23200
C2107       C  0.30939434  0.33309612  0.65651671    -0.03200
C2108       C  0.30964350  0.33659509  0.69726253    -0.17600
H2109       H  0.30861330  0.36445610  0.76375166     0.20400
H2110       H  0.30913430  0.39318774  0.62460815     0.18700
H2111       H  0.30866413  0.43251367  0.66761846     0.18700
H2112       H  0.30965838  0.32520787  0.72101229     0.14500
C2113       C  0.30481338  0.60866359  0.30044145     0.30000
C2114       C  0.30403424  0.62785927  0.28082376    -0.36400
C2115       C  0.30603006  0.64542871  0.30423948     0.16000
C2116       C  0.30876996  0.64409479  0.34412238     0.21800
C2117       C  0.30926917  0.62489829  0.36401618    -0.34500
C2118       C  0.30710493  0.60730248  0.34065693     0.15900
O2119       O  0.30444623  0.59035468  0.28334331    -0.26500
C2120       C  0.30625370  0.57705048  0.31296342     0.05700
C2121       C  0.30786955  0.58659979  0.34953181    -0.31400
O2122       O  0.31119485  0.66235054  0.35954596    -0.23200
C2123       C  0.30980320  0.67551681  0.32936185    -0.03200
C2124       C  0.30650092  0.66596546  0.29418941    -0.17600
H2125       H  0.30241585  0.62895734  0.24920584     0.20400
H2126       H  0.31157148  0.62374227  0.39514943     0.18700
H2127       H  0.31025986  0.57946147  0.37755797     0.18700
H2128       H  0.30512843  0.67300246  0.26531694     0.14500
C2129       C  0.30919160  0.49043684  0.49687751     0.30000
C2130       C  0.30785475  0.47989277  0.53308438    -0.36400
C2131       C  0.30671894  0.49242130  0.56684277     0.16000
C2132       C  0.30688715  0.51388374  0.56513138     0.21800
C2133       C  0.30814010  0.52446620  0.52878295    -0.34500
C2134       C  0.30934117  0.51189662  0.49494569     0.15900
O2135       O  0.31015758  0.48170047  0.46172430    -0.26500
C2136       C  0.31103291  0.49769233  0.43675704     0.05700
C2137       C  0.31059476  0.51693271  0.45573406    -0.31400
O2138       O  0.30637441  0.52244539  0.60065756    -0.23200
C2139       C  0.30581296  0.50625631  0.62538097    -0.03200
C2140       C  0.30592870  0.48717677  0.60594208    -0.17600
H2141       H  0.30779998  0.46306805  0.53482514     0.20400
H2142       H  0.30833630  0.54128863  0.52709182     0.18700
H2143       H  0.31067072  0.53229410  0.44245362     0.18700
H2144       H  0.30606774  0.47172851  0.61885260     0.14500
C2145       C  0.30755369  0.48818045  0.99654065     0.30000
C2146       C  0.30615022  0.47725986  0.03235044    -0.36400
C2147       C  0.30484836  0.48946778  0.06649291     0.16000
C2148       C  0.30489033  0.51094387  0.06534758     0.21800
C2149       C  0.30626540  0.52187683  0.02952607    -0.34500
C2150       C  0.30764925  0.50965696  0.99542524     0.15900
O2151       O  0.30859158  0.47986069  0.96103000    -0.26500
C2152       C  0.30945063  0.49618175  0.93681566     0.05700
C2153       C  0.30896728  0.51516638  0.95657341    -0.31400
O2154       O  0.30425601  0.51923147  0.10096423    -0.23200
C2155       C  0.30379727  0.50289967  0.12531020    -0.03200
C2156       C  0.30406604  0.48392823  0.10551490    -0.17600
H2157       H  0.30616360  0.46042333  0.03352117     0.20400
H2158       H  0.30641581  0.53871567  0.02842435     0.18700
H2159       H  0.30900266  0.53068435  0.94397241     0.18700
H2160       H  0.30438673  0.46842251  0.11812124     0.14500
C2161       C  0.30867604  0.39045295  0.22584384     0.30000
C2162       C  0.30915145  0.36893405  0.23254713    -0.36400
C2163       C  0.30951721  0.35642867  0.19858195     0.16000
C2164       C  0.30907385  0.36448834  0.16056122     0.21800
C2165       C  0.30873039  0.38605992  0.15380540    -0.34500
C2166       C  0.30870211  0.39861745  0.18786451     0.15900
O2167       O  0.30852337  0.40495646  0.25340441    -0.26500
C2168       C  0.30870777  0.42266664  0.23292384     0.05700
C2169       C  0.30883672  0.41973165  0.19198197    -0.31400
O2170       O  0.30911747  0.34983410  0.13321796    -0.23200
C2171       C  0.30983029  0.33226046  0.15409323    -0.03200
C2172       C  0.31020193  0.33538902  0.19484653    -0.17600
H2173       H  0.30935557  0.36240827  0.26220288     0.20400
H2174       H  0.30860892  0.39258073  0.12413677     0.18700
H2175       H  0.30894300  0.43143230  0.16879677     0.18700
H2176       H  0.31059802  0.32381223  0.21822081     0.14500
C2177       C  0.43706282  0.61416662  0.59097801     0.30000
C2178       C  0.43675936  0.63384648  0.60896711    -0.36400
C2179       C  0.43820539  0.65092226  0.58353935     0.16000
C2180       C  0.43957731  0.64869938  0.54303561     0.21800
C2181       C  0.44008902  0.62896959  0.52508252    -0.34500
C2182       C  0.43888575  0.61184435  0.55069184     0.15900
O2183       O  0.43544970  0.59627555  0.60913481    -0.26500
C2184       C  0.43644145  0.58218401  0.58044062     0.05700
C2185       C  0.43867158  0.59089440  0.54329518    -0.31400
O2186       O  0.43983611  0.66674673  0.52452411    -0.23200
C2187       C  0.43891602  0.68070462  0.55354987    -0.03200
C2188       C  0.43791805  0.67181206  0.59102982    -0.17600
H2189       H  0.43529948  0.63570148  0.64053791     0.20400
H2190       H  0.44113649  0.62713639  0.49332139     0.18700
H2191       H  0.43955933  0.58304676  0.51502624     0.18700
H2192       H  0.43647955  0.67953902  0.61916546     0.14500
C2193       C  0.43462909  0.39442717  0.66160859     0.30000
C2194       C  0.43390298  0.37315643  0.65250068    -0.36400
C2195       C  0.43553546  0.35940967  0.68441754     0.16000
C2196       C  0.43795583  0.36615610  0.72247026     0.21800
C2197       C  0.43840545  0.38741818  0.73173769    -0.34500
C2198       C  0.43652682  0.40116878  0.69999822     0.15900
O2199       O  0.43393039  0.40994654  0.63608935    -0.26500
C2200       C  0.43512586  0.42682572  0.65855471     0.05700
C2201       C  0.43665779  0.42237101  0.69861827    -0.31400
O2202       O  0.43963916  0.35064441  0.74746115    -0.23200
C2203       C  0.43805288  0.33376073  0.72532845    -0.03200
C2204       C  0.43541627  0.33821152  0.68588035    -0.17600
H2205       H  0.43230863  0.36771574  0.62257237     0.20400
H2206       H  0.44019780  0.39285014  0.76154230     0.18700
H2207       H  0.43819625  0.43313955  0.72275653     0.18700
H2208       H  0.43383988  0.32740904  0.66181727     0.14500
C2209       C  0.38275187  0.50124911  0.69055024     0.30000
C2210       C  0.37284140  0.48843143  0.69750588    -0.36400
C2211       C  0.36243966  0.49861736  0.70996706     0.16000
C2212       C  0.36190174  0.51991278  0.71498174     0.21800
C2213       C  0.37175148  0.53263736  0.70825135    -0.34500
C2214       C  0.38207252  0.52250156  0.69591471     0.15900
O2215       O  0.39342729  0.49519403  0.67908918    -0.26500
C2216       C  0.39959616  0.51286722  0.67714622     0.05700
C2217       C  0.39293134  0.53028798  0.68726273    -0.31400
O2218       O  0.35127855  0.52642637  0.72491418    -0.23200
C2219       C  0.34481314  0.50916523  0.72664961    -0.03200
C2220       C  0.35129447  0.49127250  0.71782453    -0.17600
H2221       H  0.37319426  0.47174942  0.69327896     0.20400
H2222       H  0.37135369  0.54935656  0.71198901     0.18700
H2223       H  0.39575359  0.54637156  0.68870155     0.18700
H2224       H  0.34814310  0.47540880  0.71573597     0.14500
C2225       C  0.43765829  0.61227142  0.09152763     0.30000
C2226       C  0.43489385  0.63216225  0.10590082    -0.36400
C2227       C  0.44042463  0.64882869  0.08654113     0.16000
C2228       C  0.44803687  0.64601542  0.05490963     0.21800
C2229       C  0.45101341  0.62609091  0.04112783    -0.34500
C2230       C  0.44552565  0.60943190  0.06063081     0.15900
O2231       O  0.43314261  0.59464070  0.10428147    -0.26500
C2232       C  0.43820659  0.58030243  0.08144611     0.05700
C2233       C  0.44605226  0.58853873  0.05378600    -0.31400
O2234       O  0.45085471  0.66367661  0.03760086    -0.23200
C2235       C  0.44523251  0.67803120  0.05890028    -0.03200
C2236       C  0.43865454  0.66975116  0.08997706    -0.17600
H2237       H  0.42854908  0.63450078  0.12957476     0.20400
H2238       H  0.45679289  0.62379735  0.01585927     0.18700
H2239       H  0.45131624  0.58035880  0.03193206     0.18700
H2240       H  0.43243234  0.67771296  0.10912610     0.14500
C2241       C  0.43979366  0.50951932  0.90217885     0.30000
C2242       C  0.44112477  0.52336613  0.87028659    -0.36400
C2243       C  0.44125084  0.51443759  0.83233198     0.16000
C2244       C  0.44014669  0.49331486  0.82592136     0.21800
C2245       C  0.43899745  0.47938309  0.85793909    -0.34500
C2246       C  0.43884376  0.48834912  0.89600361     0.15900
O2247       O  0.43930778  0.51458239  0.94011693    -0.26500
C2248       C  0.43803233  0.49641783  0.95863773     0.05700
C2249       C  0.43772822  0.47954970  0.93265539    -0.31400
O2250       O  0.43964013  0.48862211  0.78771670    -0.23200
C2251       C  0.44049143  0.50701283  0.76954456    -0.03200
C2252       C  0.44159216  0.52354636  0.79593168    -0.17600
H2253       H  0.44179325  0.54000588  0.87470911     0.20400
H2254       H  0.43802559  0.46279207  0.85347331     0.18700
H2255       H  0.43697484  0.46316909  0.93982324     0.18700
H2256       H  0.44192881  0.54002797  0.78926711     0.14500
C2257       C  0.43355744  0.49613811  0.32686304     0.30000
C2258       C  0.43122953  0.48276532  0.35882279    -0.36400
C2259       C  0.43054054  0.49217869  0.39627035     0.16000
C2260       C  0.43200186  0.51329663  0.40205000     0.21800
C2261       C  0.43423033  0.52670036  0.37002351    -0.34500
C2262       C  0.43499922  0.51725934  0.33259542     0.15900
O2263       O  0.43434768  0.49075868  0.28915658    -0.26500
C2264       C  0.43634467  0.50868549  0.27052822     0.05700
C2265       C  0.43690200  0.52565496  0.29613438    -0.31400
O2266       O  0.43196058  0.51845845  0.43997140    -0.23200
C2267       C  0.43046395  0.50038833  0.45864132    -0.03200
C2268       C  0.42940924  0.48357093  0.43287995    -0.17600
H2269       H  0.43019921  0.46614966  0.35486121     0.20400
H2270       H  0.43552397  0.54325162  0.37408711     0.18700
H2271       H  0.43803533  0.54193966  0.28872746     0.18700
H2272       H  0.42875437  0.46719396  0.44020736     0.14500
C2273       C  0.43407448  0.36110742  0.19980961     0.30000
C2274       C  0.42694335  0.37802717  0.18891401    -0.36400
C2275       C  0.43294391  0.39611912  0.17743525     0.16000
C2276       C  0.44513102  0.39726074  0.17547596     0.21800
C2277       C  0.45228509  0.38035911  0.18657139    -0.34500
C2278       C  0.44627191  0.36247625  0.19934105     0.15900
O2279       O  0.43029179  0.34300657  0.21305932    -0.26500
C2280       C  0.44017496  0.33279665  0.22182481     0.05700
C2281       C  0.45040456  0.34412739  0.21418537    -0.31400
O2282       O  0.44884803  0.41569964  0.16374588    -0.23200
C2283       C  0.43892524  0.42661421  0.15921995    -0.03200
C2284       C  0.42875280  0.41526324  0.16722138    -0.17600
H2285       H  0.41738477  0.37729518  0.19026637     0.20400
H2286       H  0.46184887  0.38126476  0.18617834     0.18700
H2287       H  0.45950664  0.33953681  0.21911681     0.18700
H2288       H  0.41963157  0.42029647  0.16512548     0.14500
C2289       C  0.38192628  0.51962661  0.18129230     0.30000
C2290       C  0.37205651  0.53165454  0.19175295    -0.36400
C2291       C  0.36174221  0.52064283  0.20127839     0.16000
C2292       C  0.36108811  0.49920573  0.20070735     0.21800
C2293       C  0.37101359  0.48711072  0.18998384    -0.34500
C2294       C  0.38139909  0.49817890  0.18026906     0.15900
O2295       O  0.39254199  0.52685212  0.17293324    -0.26500
C2296       C  0.39902082  0.50991418  0.16611771     0.05700
C2297       C  0.39253592  0.49154660  0.17007988    -0.31400
O2298       O  0.35041168  0.49229536  0.21045811    -0.23200
C2299       C  0.34419541  0.50961419  0.21720865    -0.03200
C2300       C  0.35085195  0.52763575  0.21194005    -0.17600
H2301       H  0.37242311  0.54848440  0.19269536     0.20400
H2302       H  0.37067994  0.47028164  0.18940687     0.18700
H2303       H  0.39568299  0.47568985  0.16755121     0.18700
H2304       H  0.34799724  0.54365272  0.21487725     0.14500
C2305       C  0.23761280  0.49546746  0.91226097     0.30000
C2306       C  0.24549806  0.48066655  0.89665729    -0.36400
C2307       C  0.25535639  0.48856226  0.87616706     0.16000
C2308       C  0.25740322  0.50959388  0.87160288     0.21800
C2309       C  0.24952152  0.52442298  0.88728444    -0.34500
C2310       C  0.23962379  0.51651317  0.90765729     0.15900
O2311       O  0.22746393  0.49147543  0.93020147    -0.26500
C2312       C  0.22286806  0.51019997  0.93736470     0.05700
C2313       C  0.23011837  0.52636928  0.92418343    -0.31400
O2314       O  0.26750179  0.51348672  0.85318604    -0.23200
C2315       C  0.27197090  0.49468879  0.84556947    -0.03200
C2316       C  0.26472448  0.47861915  0.85907621    -0.17600
H2317       H  0.24399576  0.46411813  0.89997177     0.20400
H2318       H  0.25099780  0.54097179  0.88382175     0.18700
H2319       H  0.22828491  0.54291076  0.92439376     0.18700
H2320       H  0.26647418  0.46205248  0.85864029     0.14500
C2321       C  0.25927043  0.50654957  0.37597522     0.30000
C2322       C  0.25153492  0.52137900  0.39209758    -0.36400
C2323       C  0.24147451  0.51355259  0.41136877     0.16000
C2324       C  0.23912128  0.49254940  0.41457997     0.21800
C2325       C  0.24693621  0.47764978  0.39868662    -0.34500
C2326       C  0.25702298  0.48550945  0.37926211     0.15900
O2327       O  0.26934070  0.51052962  0.35770640    -0.26500
C2328       C  0.27365680  0.49182687  0.34883267     0.05700
C2329       C  0.26634646  0.47563389  0.36154258    -0.31400
O2330       O  0.22878643  0.48883790  0.43164046    -0.23200
C2331       C  0.22451626  0.50773088  0.43969376    -0.03200
C2332       C  0.23209769  0.52365082  0.42784994    -0.17600
H2333       H  0.25321266  0.53791309  0.38956661     0.20400
H2334       H  0.24519984  0.46112092  0.40085747     0.18700
H2335       H  0.26795796  0.45904957  0.35976408     0.18700
H2336       H  0.23057562  0.54027975  0.42893272     0.14500
C2337       C  0.18795731  0.50960780  0.71591413     0.30000
C2338       C  0.18584660  0.52321821  0.74754704    -0.36400
C2339       C  0.18499510  0.51405235  0.78520612     0.16000
C2340       C  0.18622062  0.49293952  0.79167597     0.21800
C2341       C  0.18835512  0.47926050  0.75994871    -0.34500
C2342       C  0.18916170  0.48845845  0.72210622     0.15900
O2343       O  0.18845244  0.51479379  0.67802692    -0.26500
C2344       C  0.19001201  0.49674782  0.65951455     0.05700
C2345       C  0.19058852  0.47983190  0.68551012    -0.31400
O2346       O  0.18568347  0.48801063  0.82979233    -0.23200
C2347       C  0.18405685  0.50625248  0.84775710    -0.03200
C2348       C  0.18348679  0.52290641  0.82135925    -0.17600
H2349       H  0.18487285  0.53982004  0.74308468     0.20400
H2350       H  0.18933285  0.46265853  0.76442744     0.18700
H2351       H  0.19132399  0.46346469  0.67830606     0.18700
H2352       H  0.18274297  0.53933192  0.82805823     0.14500
C2353       C  0.18772869  0.51781547  0.28846371     0.30000
C2354       C  0.19053981  0.52770265  0.25248333    -0.36400
C2355       C  0.18831373  0.51621966  0.21797147     0.16000
C2356       C  0.18362411  0.49639357  0.21894940     0.21800
C2357       C  0.18086283  0.48645999  0.25491175    -0.34500
C2358       C  0.18311910  0.49792781  0.28940221     0.15900
O2359       O  0.18933494  0.52553228  0.32422375    -0.26500
C2360       C  0.18575759  0.51039122  0.34840727     0.05700
C2361       C  0.18179453  0.49280001  0.32843166    -0.31400
O2362       O  0.18223983  0.48852088  0.18325446    -0.23200
C2363       C  0.18609394  0.50344412  0.15902877    -0.03200
C2364       C  0.19001729  0.52107519  0.17891798    -0.17600
H2365       H  0.19427065  0.54320484  0.25150799     0.20400
H2366       H  0.17727328  0.47085068  0.25590603     0.18700
H2367       H  0.17864810  0.47826576  0.34085639     0.18700
H2368       H  0.19355134  0.53531840  0.16645787     0.14500
C2369       C  0.11310705  0.48773889  0.59043886     0.30000
C2370       C  0.12288111  0.47507470  0.58236251    -0.36400
C2371       C  0.13335983  0.48538165  0.57248974     0.16000
C2372       C  0.13428269  0.50676704  0.57051207     0.21800
C2373       C  0.12441414  0.51956039  0.57868858    -0.34500
C2374       C  0.11383424  0.50916749  0.58887150     0.15900
O2375       O  0.10243138  0.48106549  0.59919535    -0.26500
C2376       C  0.09607916  0.49831734  0.60373800     0.05700
C2377       C  0.10271136  0.51640297  0.59783535    -0.31400
O2378       O  0.14517784  0.51289417  0.56168295    -0.23200
C2379       C  0.15120509  0.49510220  0.55812568    -0.03200
C2380       C  0.14423850  0.47758862  0.56440995    -0.17600
H2381       H  0.12234647  0.45826491  0.58372307     0.20400
H2382       H  0.12495788  0.53636502  0.57740790     0.18700
H2383       H  0.09969023  0.53238851  0.59853129     0.18700
H2384       H  0.14690443  0.46139565  0.56420279     0.14500
C2385       C  0.05829979  0.51832391  0.87303771     0.30000
C2386       C  0.05856288  0.52897801  0.90939160    -0.36400
C2387       C  0.05700774  0.51669690  0.94348964     0.16000
C2388       C  0.05529877  0.49543774  0.94182533     0.21800
C2389       C  0.05501154  0.48482295  0.90554382    -0.34500
C2390       C  0.05664738  0.49705287  0.87154960     0.15900
O2391       O  0.05933727  0.52669305  0.83742916    -0.26500
C2392       C  0.05846148  0.51051958  0.81294346     0.05700
C2393       C  0.05681147  0.49168419  0.83253414    -0.31400
O2394       O  0.05461480  0.48685028  0.97725553    -0.23200
C2395       C  0.05585826  0.50278057  0.00204703    -0.03200
C2396       C  0.05732687  0.52178617  0.98274392    -0.17600
H2397       H  0.05996276  0.54562067  0.91098499     0.20400
H2398       H  0.05375967  0.46814334  0.90397297     0.18700
H2399       H  0.05547876  0.47640604  0.81979463     0.18700
H2400       H  0.05896789  0.53691513  0.99572675     0.14500
C2401       C  0.05795103  0.49571444  0.36990848     0.30000
C2402       C  0.05621113  0.48224025  0.40221525    -0.36400
C2403       C  0.05648921  0.49151163  0.43990755     0.16000
C2404       C  0.05839695  0.51253283  0.44552996     0.21800
C2405       C  0.06010116  0.52597714  0.41328444    -0.34500
C2406       C  0.05976735  0.51674745  0.37566968     0.15900
O2407       O  0.05777377  0.49061104  0.33192996    -0.26500
C2408       C  0.05944121  0.50868171  0.31335002     0.05700
C2409       C  0.06074533  0.52540208  0.33909161    -0.31400
O2410       O  0.05876999  0.51772478  0.48337359    -0.23200
C2411       C  0.05706230  0.49978725  0.50224610    -0.03200
C2412       C  0.05552788  0.48298620  0.47670040    -0.17600
H2413       H  0.05474711  0.46572408  0.39827807     0.20400
H2414       H  0.06161586  0.54247718  0.41723286     0.18700
H2415       H  0.06195379  0.54168123  0.33179331     0.18700
H2416       H  0.05434877  0.46672701  0.48422073     0.14500
C2417       C  0.13382091  0.50546307  0.06496375     0.30000
C2418       C  0.12442100  0.51718327  0.08111471    -0.36400
C2419       C  0.11351169  0.50677859  0.08537624     0.16000
C2420       C  0.11198977  0.48629900  0.07428649     0.21800
C2421       C  0.12132287  0.47467876  0.05789480    -0.34500
C2422       C  0.13219413  0.48502173  0.05379901     0.15900
O2423       O  0.14494867  0.51156800  0.06072423    -0.26500
C2424       C  0.15051733  0.49480110  0.04660582     0.05700
C2425       C  0.14295975  0.47788977  0.04155508    -0.31400
O2426       O  0.10114162  0.47953217  0.08091332    -0.23200
C2427       C  0.09551902  0.49581773  0.09654887    -0.03200
C2428       C  0.10280105  0.51326672  0.10003702    -0.17600
H2429       H  0.12559158  0.53316328  0.09041938     0.20400
H2430       H  0.12022906  0.45854132  0.04949222     0.18700
H2431       H  0.14520468  0.46226777  0.03217701     0.18700
H2432       H  0.10049674  0.52853091  0.11119294     0.14500
C2433       C  0.26105640  0.76466555  0.76656658     0.30000
C2434       C  0.25173806  0.77384744  0.74505287    -0.36400
C2435       C  0.24263607  0.76042217  0.73277628     0.16000
C2436       C  0.24267708  0.73940350  0.74119026     0.21800
C2437       C  0.25197504  0.73023267  0.76283887    -0.34500
C2438       C  0.26107701  0.74366205  0.77513303     0.15900
O2439       O  0.27073679  0.77411478  0.77910184    -0.26500
C2440       C  0.27705767  0.75903007  0.79623135     0.05700
C2441       C  0.27142910  0.73974442  0.79474727    -0.31400
O2442       O  0.23303567  0.72993152  0.72836472    -0.23200
C2443       C  0.22670482  0.74503490  0.71132151    -0.03200
C2444       C  0.23229221  0.76434739  0.71314045    -0.17600
H2445       H  0.25162201  0.79031174  0.73818743     0.20400
H2446       H  0.25209326  0.71376640  0.76968780     0.18700
H2447       H  0.27479123  0.72481682  0.80457600     0.18700
H2448       H  0.22891446  0.77928890  0.70345138     0.14500
C2449       C  0.18372101  0.64534390  0.58970035     0.30000
C2450       C  0.17689005  0.62725948  0.58458774    -0.36400
C2451       C  0.18306545  0.60941407  0.57220615     0.16000
C2452       C  0.19506703  0.60954872  0.56450607     0.21800
C2453       C  0.20190164  0.62747701  0.57016405    -0.34500
C2454       C  0.19578722  0.64513797  0.58325886     0.15900
O2455       O  0.17990993  0.66361612  0.60236972    -0.26500
C2456       C  0.18970984  0.67506516  0.60444775     0.05700
C2457       C  0.19983123  0.66435831  0.59309135    -0.31400
O2458       O  0.19895076  0.59153782  0.55120429    -0.23200
C2459       C  0.18938467  0.57951026  0.55113268    -0.03200
C2460       C  0.17923648  0.58971674  0.56416016    -0.17600
H2461       H  0.16745697  0.62707447  0.59014330     0.20400
H2462       H  0.21134735  0.62762559  0.56483104     0.18700
H2463       H  0.20888610  0.66984112  0.59304533     0.18700
H2464       H  0.17028673  0.58377523  0.56560506     0.14500
C2465       C  0.25937723  0.74373355  0.26957947     0.30000
C2466       C  0.25123889  0.72942447  0.25358025    -0.36400
C2467       C  0.24063898  0.73783477  0.23845762     0.16000
C2468       C  0.23822641  0.75888367  0.23892132     0.21800
C2469       C  0.24634990  0.77316615  0.25488488    -0.34500
C2470       C  0.25690387  0.76475690  0.27013721     0.15900
O2471       O  0.26996851  0.73940124  0.28431397    -0.26500
C2472       C  0.27432888  0.75790813  0.29470593     0.05700
C2473       C  0.26653409  0.77420007  0.28653826    -0.31400
O2474       O  0.22760595  0.76330254  0.22473853    -0.23200
C2475       C  0.22308155  0.74485363  0.21492244    -0.03200
C2476       C  0.23084107  0.72844557  0.22279681    -0.17600
H2477       H  0.25303011  0.71287616  0.25304862     0.20400
H2478       H  0.24452926  0.78970393  0.25562993     0.18700
H2479       H  0.26796818  0.79071912  0.29057286     0.18700
H2480       H  0.22926953  0.71193745  0.21923412     0.14500
C2481       C  0.19028951  0.75724998  0.86480611     0.30000
C2482       C  0.19110419  0.77122628  0.89649112    -0.36400
C2483       C  0.19064145  0.76241483  0.93450093     0.16000
C2484       C  0.18941231  0.74131060  0.94113726     0.21800
C2485       C  0.18864456  0.72727858  0.90935243    -0.34500
C2486       C  0.18915284  0.73610492  0.87121317     0.15900
O2487       O  0.19059296  0.76214609  0.82682223    -0.26500
C2488       C  0.18965528  0.74390964  0.80856575     0.05700
C2489       C  0.18875887  0.72713656  0.83467182    -0.31400
O2490       O  0.18880480  0.73665753  0.97931267    -0.23200
C2491       C  0.18972278  0.75505292  0.99716137    -0.03200
C2492       C  0.19089776  0.77157412  0.97069431    -0.17600
H2493       H  0.19199403  0.78782807  0.89183486     0.20400
H2494       H  0.18765577  0.71069599  0.91400759     0.18700
H2495       H  0.18805641  0.71074104  0.82770071     0.18700
H2496       H  0.19148894  0.78803924  0.97719790     0.14500
C2497       C  0.18724279  0.76537062  0.43797886     0.30000
C2498       C  0.18676632  0.77619666  0.40170968    -0.36400
C2499       C  0.18576401  0.76385622  0.36752619     0.16000
C2500       C  0.18533020  0.74239280  0.36907844     0.21800
C2501       C  0.18581758  0.73161570  0.40521944    -0.34500
C2502       C  0.18680116  0.74390992  0.43928010     0.15900
O2503       O  0.18787692  0.77368778  0.47368449    -0.26500
C2504       C  0.18790083  0.75730630  0.49801635     0.05700
C2505       C  0.18726465  0.73838967  0.47822639    -0.31400
O2506       O  0.18481361  0.73386950  0.33366254    -0.23200
C2507       C  0.18484351  0.75002403  0.30894039    -0.03200
C2508       C  0.18538787  0.76913316  0.32828217    -0.17600
H2509       H  0.18714064  0.79301605  0.40025841     0.20400
H2510       H  0.18550212  0.71479276  0.40665327     0.18700
H2511       H  0.18684974  0.72288119  0.49078439     0.18700
H2512       H  0.18592858  0.78453113  0.31528922     0.14500
C2513       C  0.18738782  0.61386882  0.04709978     0.30000
C2514       C  0.18847531  0.63506948  0.03744035    -0.36400
C2515       C  0.18661561  0.64911710  0.06869089     0.16000
C2516       C  0.18415251  0.64266778  0.10696013     0.21800
C2517       C  0.18287125  0.62151233  0.11643986    -0.34500
C2518       C  0.18448183  0.60750097  0.08505061     0.15900
O2519       O  0.18890880  0.59807314  0.02269777    -0.26500
C2520       C  0.18677090  0.58139901  0.04514590     0.05700
C2521       C  0.18390986  0.58630762  0.08418266    -0.31400
O2522       O  0.18347514  0.65830703  0.13208586    -0.23200
C2523       C  0.18525583  0.67502253  0.10952319    -0.03200
C2524       C  0.18718104  0.67032985  0.06974024    -0.17600
H2525       H  0.19068827  0.64023092  0.00772734     0.20400
H2526       H  0.18085975  0.61633582  0.14629998     0.18700
H2527       H  0.18192693  0.57578736  0.10844171     0.18700
H2528       H  0.18922529  0.68091770  0.04564227     0.14500
C2529       C  0.06014005  0.64137858  0.04130062     0.30000
C2530       C  0.05871678  0.62003257  0.03386927    -0.36400
C2531       C  0.06054354  0.60676052  0.06641877     0.16000
C2532       C  0.06336227  0.61406452  0.10379789     0.21800
C2533       C  0.06509955  0.63532064  0.11093201    -0.34500
C2534       C  0.06343059  0.64854544  0.07831523     0.15900
O2535       O  0.05840404  0.65663232  0.01571912    -0.26500
C2536       C  0.06077155  0.67372545  0.03652594     0.05700
C2537       C  0.06403216  0.66964493  0.07555763    -0.31400
O2538       O  0.06371101  0.59915062  0.13063168    -0.23200
C2539       C  0.06133411  0.58204680  0.11003773    -0.03200
C2540       C  0.05940306  0.58572262  0.06986988    -0.17600
H2541       H  0.05613045  0.61422700  0.00499249     0.20400
H2542       H  0.06732633  0.64117921  0.14010301     0.18700
H2543       H  0.06621856  0.68065734  0.09871165     0.18700
H2544       H  0.05695213  0.57465046  0.04711563     0.14500
C2545       C  0.13383713  0.77071597  0.07053270     0.30000
C2546       C  0.12455658  0.78207705  0.05333380    -0.36400
C2547       C  0.11380215  0.77150402  0.04903152     0.16000
C2548       C  0.11222879  0.75111764  0.06085702     0.21800
C2549       C  0.12155371  0.73969578  0.07807741    -0.34500
C2550       C  0.13236446  0.75030483  0.08237550     0.15900
O2551       O  0.14464214  0.77760789  0.07686060    -0.26500
C2552       C  0.15026611  0.76146768  0.09300370     0.05700
C2553       C  0.14305645  0.74399355  0.09721565    -0.31400
O2554       O  0.10123812  0.74467318  0.05551503    -0.23200
C2555       C  0.09574001  0.76116451  0.04000171    -0.03200
C2556       C  0.10315614  0.77825982  0.03526141    -0.17600
H2557       H  0.12563258  0.79812045  0.04414697     0.20400
H2558       H  0.12042943  0.72374432  0.08775491     0.18700
H2559       H  0.14541053  0.72881137  0.10876591     0.18700
H2560       H  0.10089404  0.79370870  0.02482549     0.14500
C2561       C  0.06129897  0.76346753  0.70851901     0.30000
C2562       C  0.06244474  0.77444389  0.74438749    -0.36400
C2563       C  0.06358892  0.76225708  0.77882211     0.16000
C2564       C  0.06361827  0.74078047  0.77781283     0.21800
C2565       C  0.06258054  0.72983849  0.74199139    -0.34500
C2566       C  0.06137226  0.74199611  0.70767316     0.15900
O2567       O  0.06015160  0.77168092  0.67282116    -0.26500
C2568       C  0.05941195  0.75526869  0.64881839     0.05700
C2569       C  0.06012992  0.73636733  0.66890277    -0.31400
O2570       O  0.06398163  0.73243655  0.81348432    -0.23200
C2571       C  0.06425467  0.74869639  0.83786316    -0.03200
C2572       C  0.06409876  0.76772594  0.81797924    -0.17600
H2573       H  0.06228206  0.79127978  0.74541081     0.20400
H2574       H  0.06247849  0.71299969  0.74106283     0.18700
H2575       H  0.06008801  0.72080761  0.65661637     0.18700
H2576       H  0.06367410  0.78320372  0.83056299     0.14500
C2577       C  0.06331954  0.75262183  0.28102756     0.30000
C2578       C  0.06566277  0.76570767  0.24877368    -0.36400
C2579       C  0.06349296  0.75728600  0.21119229     0.16000
C2580       C  0.05934617  0.73731762  0.20531148     0.21800
C2581       C  0.05712979  0.72407161  0.23770175    -0.34500
C2582       C  0.05927176  0.73255324  0.27547554     0.15900
O2583       O  0.06412040  0.75776484  0.31880005    -0.26500
C2584       C  0.06061066  0.74073003  0.33781081     0.05700
C2585       C  0.05752507  0.72451679  0.31239393    -0.31400
O2586       O  0.05761803  0.73305947  0.16729936    -0.23200
C2587       C  0.06072006  0.75060389  0.14891231    -0.03200
C2588       C  0.06445827  0.76608753  0.17483472    -0.17600
H2589       H  0.06871219  0.78153610  0.25272227     0.20400
H2590       H  0.05375399  0.70844731  0.23380626     0.18700
H2591       H  0.05407618  0.70930888  0.32004094     0.18700
H2592       H  0.06736198  0.78173071  0.16784991     0.14500
C2593       C  0.05166615  0.64455676  0.55914440     0.30000
C2594       C  0.04480882  0.62702759  0.56812937    -0.36400
C2595       C  0.05094724  0.60999557  0.58389053     0.16000
C2596       C  0.06305299  0.60997647  0.58954212     0.21800
C2597       C  0.06989930  0.62764865  0.58110871    -0.34500
C2598       C  0.06370362  0.64489346  0.56619714     0.15900
O2599       O  0.04773990  0.66213360  0.54392133    -0.26500
C2600       C  0.05733049  0.67403899  0.54196700     0.05700
C2601       C  0.06752371  0.66421478  0.55557531    -0.31400
O2602       O  0.06693146  0.59225158  0.60443074    -0.23200
C2603       C  0.05714230  0.58102307  0.60886610    -0.03200
C2604       C  0.04693684  0.59126192  0.59687412    -0.17600
H2605       H  0.03533590  0.62675072  0.56344478     0.20400
H2606       H  0.07935463  0.62799139  0.58616209     0.18700
H2607       H  0.07645876  0.67025516  0.55646287     0.18700
H2608       H  0.03790009  0.58570464  0.59782021     0.14500
C2609       C  0.13422246  0.74734982  0.58413737     0.30000
C2610       C  0.12463017  0.73500513  0.57113446    -0.36400
C2611       C  0.11409328  0.74577083  0.56156297     0.16000
C2612       C  0.11318107  0.76712775  0.56460663     0.21800
C2613       C  0.12267938  0.77933919  0.57737656    -0.34500
C2614       C  0.13307559  0.76866459  0.58700177     0.15900
O2615       O  0.14504724  0.74093668  0.59354914    -0.26500
C2616       C  0.15078894  0.75848041  0.60263313     0.05700
C2617       C  0.14369536  0.77608476  0.59909328    -0.31400
O2618       O  0.10257270  0.77412714  0.55567737    -0.23200
C2619       C  0.09641962  0.75717603  0.54653725    -0.03200
C2620       C  0.10314199  0.73895945  0.54952807    -0.17600
H2621       H  0.12532546  0.71825691  0.56865841     0.20400
H2622       H  0.12198551  0.79609428  0.57983404     0.18700
H2623       H  0.14617183  0.79221316  0.60323930     0.18700
H2624       H  0.10026510  0.72307143  0.54506876     0.14500
C2625       C  0.25891802  0.26944018  0.01065957     0.30000
C2626       C  0.24914545  0.27894158  0.99188247    -0.36400
C2627       C  0.24039554  0.26539799  0.97703926     0.16000
C2628       C  0.24124604  0.24404512  0.98050723     0.21800
C2629       C  0.25088568  0.23462928  0.99963414    -0.34500
C2630       C  0.25957030  0.24809008  0.01446042     0.15900
O2631       O  0.26845849  0.27885993  0.02475191    -0.26500
C2632       C  0.27522739  0.26328486  0.03806306     0.05700
C2633       C  0.27006533  0.24384841  0.03251158    -0.31400
O2634       O  0.23208517  0.23425366  0.96513536    -0.23200
C2635       C  0.22517044  0.24942277  0.95144183    -0.03200
C2636       C  0.22988461  0.26920114  0.95813226    -0.17600
H2637       H  0.24847606  0.29566714  0.98866343     0.20400
H2638       H  0.25160465  0.21789462  0.00253068     0.18700
H2639       H  0.27380109  0.22868696  0.03892007     0.18700
H2640       H  0.22594243  0.28415777  0.95137823     0.14500
C2641       C  0.19395280  0.39307095  0.96660657     0.30000
C2642       C  0.19634022  0.37267181  0.97931458    -0.36400
C2643       C  0.19253581  0.35675285  0.95399342     0.16000
C2644       C  0.18672707  0.36069116  0.91871976     0.21800
C2645       C  0.18454710  0.38110012  0.90563206    -0.34500
C2646       C  0.18845716  0.39704059  0.93077217     0.15900
O2647       O  0.19566904  0.41010695  0.98743788    -0.26500
C2648       C  0.19148666  0.42525348  0.96434959     0.05700
C2649       C  0.18696031  0.41810093  0.92852220    -0.31400
O2650       O  0.18360601  0.34350398  0.90030268    -0.23200
C2651       C  0.18752376  0.32835209  0.92390712    -0.03200
C2652       C  0.19320293  0.33563838  0.95773750    -0.17600
H2653       H  0.20055528  0.36943765  0.00752221     0.20400
H2654       H  0.17988916  0.38430540  0.87820953     0.18700
H2655       H  0.18229772  0.42688236  0.90594947     0.18700
H2656       H  0.19721284  0.32670338  0.98147652     0.14500
C2657       C  0.24136486  0.25932742  0.47207153     0.30000
C2658       C  0.24911753  0.27406841  0.48840921    -0.36400
C2659       C  0.25899494  0.26614370  0.50867311     0.16000
C2660       C  0.26128228  0.24513111  0.51207172     0.21800
C2661       C  0.25355729  0.23031616  0.49538947    -0.34500
C2662       C  0.24354420  0.23826674  0.47552436     0.15900
O2663       O  0.23107549  0.26339603  0.45518558    -0.26500
C2664       C  0.22649888  0.24473232  0.44754367     0.05700
C2665       C  0.23394612  0.22848666  0.45928812    -0.31400
O2666       O  0.27129547  0.24131897  0.53120494    -0.23200
C2667       C  0.27540184  0.26017220  0.54055377    -0.03200
C2668       C  0.26803885  0.27613775  0.52733639    -0.17600
H2669       H  0.24741122  0.29061248  0.48628577     0.20400
H2670       H  0.25514204  0.21376213  0.49822311     0.18700
H2671       H  0.23215612  0.21194075  0.45866627     0.18700
H2672       H  0.26948474  0.29275976  0.52924938     0.14500
C2673       C  0.19355907  0.35747149  0.45314361     0.30000
C2674       C  0.18961010  0.37164409  0.48184376    -0.36400
C2675       C  0.19003952  0.39271584  0.47100799     0.16000
C2676       C  0.19433595  0.39954861  0.43485640     0.21800
C2677       C  0.19834779  0.38539862  0.40621189    -0.34500
C2678       C  0.19769253  0.36428350  0.41674394     0.15900
O2679       O  0.19262274  0.33699644  0.45513255    -0.26500
C2680       C  0.19614037  0.33065689  0.41945425     0.05700
C2681       C  0.19945311  0.34695717  0.39452660    -0.31400
O2682       O  0.19376722  0.41998841  0.43094615    -0.23200
C2683       C  0.18887812  0.42620156  0.46485883    -0.03200
C2684       C  0.18634836  0.40992052  0.49076131    -0.17600
H2685       H  0.18597079  0.36655929  0.50997714     0.20400
H2686       H  0.20134777  0.39043824  0.37720782     0.18700
H2687       H  0.20189094  0.34619861  0.36345495     0.18700
H2688       H  0.18248587  0.41072238  0.52015645     0.14500
C2689       C  0.18722022  0.24385505  0.59985091     0.30000
C2690       C  0.18764127  0.23285001  0.63575151    -0.36400
C2691       C  0.18920948  0.24482233  0.66995591     0.16000
C2692       C  0.19012338  0.26623087  0.66904514     0.21800
C2693       C  0.18953270  0.27733411  0.63303049    -0.34500
C2694       C  0.18807332  0.26528238  0.59860298     0.15900
O2695       O  0.18679545  0.23547811  0.56433215    -0.26500
C2696       C  0.18730933  0.25164590  0.53972076     0.05700
C2697       C  0.18800550  0.27069597  0.55929915    -0.31400
O2698       O  0.19139264  0.27422070  0.70484079    -0.23200
C2699       C  0.19137901  0.25767951  0.72883507    -0.03200
C2700       C  0.19005299  0.23897592  0.70869737    -0.17600
H2701       H  0.18707349  0.21604140  0.63681926     0.20400
H2702       H  0.19034942  0.29411087  0.63189352     0.18700
H2703       H  0.18907461  0.28604949  0.54648714     0.18700
H2704       H  0.18933793  0.22343625  0.72095724     0.14500
C2705       C  0.18475026  0.25642133  0.16965574     0.30000
C2706       C  0.18210695  0.26679102  0.13407514    -0.36400
C2707       C  0.18364965  0.25525207  0.09925572     0.16000
C2708       C  0.18741272  0.23481260  0.09952254     0.21800
C2709       C  0.18998714  0.22436699  0.13525387    -0.34500
C2710       C  0.18858605  0.23602296  0.17016536     0.15900
O2711       O  0.18435735  0.26464904  0.20528785    -0.26500
C2712       C  0.18804783  0.24948001  0.22919303     0.05700
C2713       C  0.19080625  0.23118273  0.20908077    -0.31400
O2714       O  0.18886895  0.22737597  0.06340725    -0.23200
C2715       C  0.18603171  0.24324374  0.03971044    -0.03200
C2716       C  0.18267603  0.26101186  0.06040441    -0.17600
H2717       H  0.17934594  0.28292748  0.13356424     0.20400
H2718       H  0.19318170  0.20848204  0.13568576     0.18700
H2719       H  0.19403907  0.21663786  0.22122778     0.18700
H2720       H  0.18035646  0.27616162  0.04859589     0.14500
C2721       C  0.06464459  0.39748540  0.68812364     0.30000
C2722       C  0.07134432  0.37936592  0.68405088    -0.36400
C2723       C  0.06503828  0.36073156  0.68543988     0.16000
C2724       C  0.05291416  0.35979666  0.69016344     0.21800
C2725       C  0.04614785  0.37810124  0.69401796    -0.34500
C2726       C  0.05252779  0.39689594  0.69326393     0.15900
O2727       O  0.06883117  0.41649651  0.68678686    -0.26500
C2728       C  0.05936179  0.42842308  0.69182943     0.05700
C2729       C  0.04891824  0.41716128  0.69618092    -0.31400
O2730       O  0.04910547  0.34045729  0.69446956    -0.23200
C2731       C  0.05896228  0.32909747  0.69236771    -0.03200
C2732       C  0.06907592  0.34092986  0.68665535    -0.17600
H2733       H  0.08087376  0.37976535  0.68084382     0.20400
H2734       H  0.03666624  0.37769901  0.69847264     0.18700
H2735       H  0.03996732  0.42304655  0.69844920     0.18700
H2736       H  0.07820016  0.33577029  0.68695180     0.14500
C2737       C  0.11491448  0.24818415  0.79107803     0.30000
C2738       C  0.12464225  0.23580167  0.80270818    -0.36400
C2739       C  0.13525253  0.24655240  0.81071277     0.16000
C2740       C  0.13613460  0.26790119  0.80711796     0.21800
C2741       C  0.12654402  0.28012778  0.79524348    -0.34500
C2742       C  0.11603974  0.26948730  0.78748063     0.15900
O2743       O  0.10388910  0.24190028  0.78506383    -0.26500
C2744       C  0.09800222  0.25950892  0.77757875     0.05700
C2745       C  0.10519192  0.27702809  0.77837363    -0.31400
O2746       O  0.14672248  0.27493810  0.81570963    -0.23200
C2747       C  0.15286699  0.25801324  0.82511820    -0.03200
C2748       C  0.14619941  0.23977311  0.82269456    -0.17600
H2749       H  0.12392538  0.21909544  0.80609644     0.20400
H2750       H  0.12718201  0.29689685  0.79287044     0.18700
H2751       H  0.10263756  0.29318730  0.77505725     0.18700
H2752       H  0.14906195  0.22393033  0.82801625     0.14500
C2753       C  0.05871692  0.36145948  0.22306452     0.30000
C2754       C  0.05873940  0.38068574  0.24279414    -0.36400
C2755       C  0.05690264  0.39821835  0.21877404     0.16000
C2756       C  0.05529401  0.39675374  0.17819442     0.21800
C2757       C  0.05484702  0.37753983  0.15880645    -0.34500
C2758       C  0.05657980  0.36006072  0.18277782     0.15900
O2759       O  0.06135466  0.34331804  0.23883288    -0.26500
C2760       C  0.06070170  0.33020021  0.20838152     0.05700
C2761       C  0.05763010  0.33963481  0.17281492    -0.31400
O2762       O  0.05534477  0.41497449  0.16062511    -0.23200
C2763       C  0.05673506  0.42832904  0.19024089    -0.03200
C2764       C  0.05762321  0.41893342  0.22731527    -0.17600
H2765       H  0.06062287  0.38193897  0.27422126     0.20400
H2766       H  0.05382445  0.37637772  0.12692533     0.18700
H2767       H  0.05692572  0.33265136  0.14368138     0.18700
H2768       H  0.05953188  0.42616107  0.25561406     0.14500
C2769       C  0.06358506  0.24481573  0.94709462     0.30000
C2770       C  0.06532601  0.23132197  0.97932819    -0.36400
C2771       C  0.06621093  0.24075691  0.01675237     0.16000
C2772       C  0.06539454  0.26199122  0.02236474     0.21800
C2773       C  0.06368516  0.27550388  0.99007901    -0.34500
C2774       C  0.06281221  0.26606373  0.95261484     0.15900
O2775       O  0.06282172  0.23942923  0.90933669    -0.26500
C2776       C  0.06154300  0.25749499  0.89043088     0.05700
C2777       C  0.06142667  0.27454710  0.91592952    -0.31400
O2778       O  0.06578791  0.26726401  0.06029108    -0.23200
C2779       C  0.06691512  0.24913189  0.07913732    -0.03200
C2780       C  0.06729525  0.23218338  0.05341975    -0.17600
H2781       H  0.06590125  0.21462453  0.97554123     0.20400
H2782       H  0.06297173  0.29218142  0.99390951     0.18700
H2783       H  0.06081341  0.29089766  0.90835108     0.18700
H2784       H  0.06764153  0.21578938  0.06085051     0.14500
C2785       C  0.05962373  0.24313327  0.44730879     0.30000
C2786       C  0.06149274  0.22976197  0.47961946    -0.36400
C2787       C  0.06116368  0.23907672  0.51722128     0.16000
C2788       C  0.05913656  0.26007186  0.52281715     0.21800
C2789       C  0.05729369  0.27343896  0.49052710    -0.34500
C2790       C  0.05757936  0.26411531  0.45297006     0.15900
O2791       O  0.06009153  0.23801914  0.40939202    -0.26500
C2792       C  0.05827515  0.25598778  0.39066945     0.05700
C2793       C  0.05659050  0.27267640  0.41634075    -0.31400
O2794       O  0.05872835  0.26525379  0.56067849    -0.23200
C2795       C  0.06050959  0.24731049  0.57949846    -0.03200
C2796       C  0.06216309  0.23056114  0.55394530    -0.17600
H2797       H  0.06311916  0.21328460  0.47574128     0.20400
H2798       H  0.05570964  0.28993051  0.49439260     0.18700
H2799       H  0.05545828  0.28897411  0.40901125     0.18700
H2800       H  0.06342283  0.21431258  0.56141974     0.14500
C2801       C  0.11570078  0.27095079  0.31998207     0.30000
C2802       C  0.12533397  0.28286075  0.33311133    -0.36400
C2803       C  0.13610113  0.27224266  0.33751814     0.16000
C2804       C  0.13734828  0.25128837  0.32965596     0.21800
C2805       C  0.12765243  0.23929434  0.31678300    -0.34500
C2806       C  0.11685397  0.24997074  0.31217651     0.15900
O2807       O  0.10492218  0.27793193  0.31308795    -0.26500
C2808       C  0.09901042  0.26128016  0.30051885     0.05700
C2809       C  0.10598758  0.24337507  0.29942139    -0.31400
O2810       O  0.14842197  0.24488986  0.33354160    -0.23200
C2811       C  0.15432271  0.26198133  0.34415250    -0.03200
C2812       C  0.14706197  0.27941571  0.34719936    -0.17600
H2813       H  0.12454015  0.29938388  0.33875511     0.20400
H2814       H  0.12852817  0.22290793  0.30997845     0.18700
H2815       H  0.10342150  0.22782812  0.29060897     0.18700
H2816       H  0.14960175  0.29529234  0.35368266     0.14500
C2817       C  0.05333620  0.86152660  0.95461553     0.30000
C2818       C  0.05121540  0.88196749  0.96732559    -0.36400
C2819       C  0.05500299  0.89775355  0.94160424     0.16000
C2820       C  0.06057810  0.89362611  0.90598588     0.21800
C2821       C  0.06241958  0.87316217  0.89277756    -0.34500
C2822       C  0.05852981  0.85735205  0.91836062     0.15900
O2823       O  0.05171331  0.84462597  0.97594698    -0.26500
C2824       C  0.05565387  0.82935634  0.95285031     0.05700
C2825       C  0.05992160  0.83626236  0.91641236    -0.31400
O2826       O  0.06418192  0.91067309  0.88800172    -0.23200
C2827       C  0.06078058  0.92591806  0.91216078    -0.03200
C2828       C  0.05490972  0.91886182  0.94586532    -0.17600
H2829       H  0.04732790  0.88531489  0.99600342     0.20400
H2830       H  0.06695691  0.86981997  0.86519162     0.18700
H2831       H  0.06437157  0.82732029  0.89362785     0.18700
H2832       H  0.05143772  0.92789570  0.97035729     0.14500
C2833       C  0.05523845  0.14420513  0.78599287     0.30000
C2834       C  0.04895441  0.12549918  0.78892785    -0.36400
C2835       C  0.05535417  0.10831357  0.80278398     0.16000
C2836       C  0.06719915  0.10928349  0.81262188     0.21800
C2837       C  0.07348022  0.12814049  0.81013713    -0.34500
C2838       C  0.06700153  0.14548761  0.79677732     0.15900
O2839       O  0.05096913  0.16204974  0.77314253    -0.26500
C2840       C  0.06002299  0.17511915  0.77632395     0.05700
C2841       C  0.07024581  0.16574519  0.79099940    -0.31400
O2842       O  0.07130135  0.09125681  0.82569461    -0.23200
C2843       C  0.06190813  0.07876609  0.82435235    -0.03200
C2844       C  0.05175893  0.08856801  0.81060997    -0.17600
H2845       H  0.03967996  0.12445344  0.78118726     0.20400
H2846       H  0.08271083  0.12925432  0.81840818     0.18700
H2847       H  0.07886655  0.17268514  0.79546252     0.18700
H2848       H  0.04293580  0.08217777  0.80792002     0.14500
C2849       C  0.05897958  0.85935631  0.45602856     0.30000
C2850       C  0.05960167  0.87986985  0.47017707    -0.36400
C2851       C  0.05866786  0.89559131  0.44146277     0.16000
C2852       C  0.05738541  0.89130670  0.40154361     0.21800
C2853       C  0.05647235  0.87080573  0.38749354    -0.34500
C2854       C  0.05723968  0.85508916  0.41629221     0.15900
O2855       O  0.06033934  0.84236348  0.47739510    -0.26500
C2856       C  0.05926245  0.82698554  0.45122980     0.05700
C2857       C  0.05720461  0.83391363  0.41270636    -0.31400
O2858       O  0.05769070  0.90822492  0.37954947    -0.23200
C2859       C  0.05897310  0.92359405  0.40566265    -0.03200
C2860       C  0.05954392  0.91672136  0.44476614    -0.17600
H2861       H  0.06102594  0.88330518  0.50126691     0.20400
H2862       H  0.05554659  0.86735542  0.35619286     0.18700
H2863       H  0.05632126  0.82474852  0.38592994     0.18700
H2864       H  0.06104517  0.92581860  0.47131215     0.14500
C2865       C  0.06644507  0.00852530  0.66076631     0.30000
C2866       C  0.06838924  0.02170790  0.62824979    -0.36400
C2867       C  0.06807748  0.01226229  0.59077896     0.16000
C2868       C  0.06598559  0.99129047  0.58532919     0.21800
C2869       C  0.06411242  0.97804912  0.61794250    -0.34500
C2870       C  0.06442399  0.98751516  0.65551116     0.15900
O2871       O  0.06640051  0.01404683  0.69851324    -0.26500
C2872       C  0.06432856  0.99631943  0.71773890     0.05700
C2873       C  0.06302717  0.97932517  0.69246388    -0.31400
O2874       O  0.06534566  0.98613772  0.54736387    -0.23200
C2875       C  0.06707979  0.00409514  0.52842805    -0.03200
C2876       C  0.06888964  0.02077004  0.55404146    -0.17600
H2877       H  0.06989766  0.03823237  0.63185903     0.20400
H2878       H  0.06234986  0.96160715  0.61428933     0.18700
H2879       H  0.06150603  0.96319516  0.70029280     0.18700
H2880       H  0.06997875  0.03706252  0.54661290     0.14500
C2881       C  0.06518544  0.99795608  0.15819484     0.30000
C2882       C  0.06705082  0.98728412  0.12255983    -0.36400
C2883       C  0.06538820  0.99887268  0.08788356     0.16000
C2884       C  0.06220572  0.01961935  0.08821916     0.21800
C2885       C  0.06028323  0.03032182  0.12403268    -0.34500
C2886       C  0.06184059  0.01862643  0.15888223     0.15900
O2887       O  0.06621667  0.98995545  0.19386817    -0.26500
C2888       C  0.06341857  0.00554809  0.21796581     0.05700
C2889       C  0.06057053  0.02386330  0.19799730    -0.31400
O2890       O  0.06098988  0.02726890  0.05212416    -0.23200
C2891       C  0.06337622  0.01117190  0.02854686    -0.03200
C2892       C  0.06615388  0.99308534  0.04916607    -0.17600
H2893       H  0.06953377  0.97101043  0.12195305     0.20400
H2894       H  0.05765418  0.04652171  0.12464239     0.18700
H2895       H  0.05805775  0.03875486  0.21041467     0.18700
H2896       H  0.06824795  0.97786073  0.03734831     0.14500
C2897       C  0.06497356  0.14963165  0.31363002     0.30000
C2898       C  0.06411312  0.13643232  0.34673526    -0.36400
C2899       C  0.06373586  0.11504168  0.33853511     0.16000
C2900       C  0.06458872  0.10711140  0.30053203     0.21800
C2901       C  0.06545323  0.12029591  0.26745443    -0.34500
C2902       C  0.06541684  0.14168166  0.27555640     0.15900
O2903       O  0.06458113  0.17016519  0.31410851    -0.26500
C2904       C  0.06454967  0.17530272  0.27583313     0.05700
C2905       C  0.06505214  0.15827218  0.25054830    -0.31400
O2906       O  0.06390866  0.08662116  0.29972408    -0.23200
C2907       C  0.06234879  0.08142696  0.33761328    -0.03200
C2908       C  0.06213421  0.09843836  0.36306971    -0.17600
H2909       H  0.06334524  0.14243477  0.37664378     0.20400
H2910       H  0.06570828  0.11431954  0.23742801     0.18700
H2911       H  0.06488525  0.15817661  0.21839642     0.18700
H2912       H  0.06101475  0.09850020  0.39500549     0.14500
C2913       C  0.24567403  0.01694570  0.62937857     0.30000
C2914       C  0.25485962  0.02594595  0.60703613    -0.36400
C2915       C  0.26403425  0.01250144  0.59540738     0.16000
C2916       C  0.26422021  0.99165099  0.60527845     0.21800
C2917       C  0.25506601  0.98267582  0.62782692    -0.34500
C2918       C  0.24585683  0.99610111  0.63930543     0.15900
O2919       O  0.23591353  0.02636577  0.64136931    -0.26500
C2920       C  0.22974334  0.01140364  0.65940684     0.05700
C2921       C  0.23553698  0.99224574  0.65906894    -0.31400
O2922       O  0.27377526  0.98205994  0.59192372    -0.23200
C2923       C  0.27978397  0.99693122  0.57302058    -0.03200
C2924       C  0.27411903  0.01619638  0.57428480    -0.17600
H2925       H  0.25477990  0.04224306  0.59882463     0.20400
H2926       H  0.25507183  0.96632056  0.63559700     0.18700
H2927       H  0.23232537  0.97741740  0.66992151     0.18700
H2928       H  0.27720487  0.03093621  0.56259655     0.14500
C2929       C  0.18623797  0.85990117  0.67943701     0.30000
C2930       C  0.18080095  0.87859214  0.66844452    -0.36400
C2931       C  0.18727511  0.89669924  0.67548587     0.16000
C2932       C  0.19837395  0.89659251  0.69248307     0.21800
C2933       C  0.20386536  0.87770305  0.70368947    -0.34500
C2934       C  0.19733306  0.85938480  0.69649248     0.15900
O2935       O  0.18174964  0.84130716  0.67404402    -0.26500
C2936       C  0.18994498  0.82836902  0.68786469     0.05700
C2937       C  0.19990138  0.83868552  0.70252186    -0.31400
O2938       O  0.20233624  0.91567361  0.69900950    -0.23200
C2939       C  0.19369846  0.92797642  0.68543958    -0.03200
C2940       C  0.18411741  0.91694180  0.67076047    -0.17600
H2941       H  0.17204582  0.87897669  0.65544355     0.20400
H2942       H  0.21251254  0.87734318  0.71747104     0.18700
H2943       H  0.20799104  0.83195929  0.71402210     0.18700
H2944       H  0.17565019  0.92298543  0.66106115     0.14500
C2945       C  0.19871640  0.11292730  0.78073146     0.30000
C2946       C  0.20505216  0.13144841  0.78659559    -0.36400
C2947       C  0.19879924  0.14776335  0.80465519     0.16000
C2948       C  0.18702403  0.14616210  0.81520703     0.21800
C2949       C  0.18071876  0.12757671  0.80963567    -0.34500
C2950       C  0.18706578  0.11108192  0.79257661     0.15900
O2951       O  0.20286305  0.09564714  0.76485250    -0.26500
C2952       C  0.19382703  0.08244400  0.76729512     0.05700
C2953       C  0.18377655  0.09114583  0.78441586    -0.31400
O2954       O  0.18297052  0.16324899  0.83212807    -0.23200
C2955       C  0.19231468  0.17581644  0.83295384    -0.03200
C2956       C  0.20242425  0.16700586  0.81648397    -0.17600
H2957       H  0.21426982  0.13290621  0.77830720     0.20400
H2958       H  0.17157354  0.12596576  0.81868930     0.18700
H2959       H  0.17524708  0.08393363  0.78937733     0.18700
H2960       H  0.21117855  0.17371964  0.81410777     0.14500
C2961       C  0.13931498  0.98787467  0.79511916     0.30000
C2962       C  0.12974240  0.97527790  0.80566287    -0.36400
C2963       C  0.11917924  0.98559574  0.81431121     0.16000
C2964       C  0.11797921  0.00694762  0.81273514     0.21800
C2965       C  0.12768072  0.01970813  0.80231640    -0.34500
C2966       C  0.13836875  0.00927936  0.79353706     0.15900
O2967       O  0.14996546  0.98113826  0.78634447    -0.26500
C2968       C  0.15611191  0.99830046  0.77880445     0.05700
C2969       C  0.14937042  0.01642875  0.78278627    -0.31400
O2970       O  0.10697514  0.01298798  0.82022486    -0.23200
C2971       C  0.10117593  0.99517706  0.82668175    -0.03200
C2972       C  0.10839854  0.97774782  0.82353413    -0.17600
H2973       H  0.13046750  0.95848395  0.80673533     0.20400
H2974       H  0.12691744  0.03648227  0.80071925     0.18700
H2975       H  0.15222184  0.03241123  0.77933279     0.18700
H2976       H  0.10593193  0.96151289  0.82597832     0.14500
C2977       C  0.24209081  0.01792063  0.12789021     0.30000
C2978       C  0.25160086  0.02743673  0.10773007    -0.36400
C2979       C  0.26017278  0.01398866  0.09137251     0.16000
C2980       C  0.25948493  0.99263358  0.09482122     0.21800
C2981       C  0.24998855  0.98312715  0.11497018    -0.34500
C2982       C  0.24141859  0.99655978  0.13123738     0.15900
O2983       O  0.23280771  0.02743721  0.14373003    -0.26500
C2984       C  0.22608914  0.01198092  0.15770783     0.05700
C2985       C  0.23107673  0.99243570  0.15075600    -0.31400
O2986       O  0.26870928  0.98305752  0.07884146    -0.23200
C2987       C  0.27542198  0.99842426  0.06450216    -0.03200
C2988       C  0.27049268  0.01802592  0.07148165    -0.17600
H2989       H  0.25224231  0.04417651  0.10480222     0.20400
H2990       H  0.24933110  0.96638443  0.11782158     0.18700
H2991       H  0.22729969  0.97731614  0.15717374     0.18700
H2992       H  0.27428720  0.03310141  0.06482974     0.14500
C2993       C  0.19222021  0.86107313  0.16395075     0.30000
C2994       C  0.19164556  0.88010188  0.14364070    -0.36400
C2995       C  0.19346933  0.89790869  0.16662718     0.16000
C2996       C  0.19563397  0.89697263  0.20695637     0.21800
C2997       C  0.19671771  0.87786065  0.22698738    -0.34500
C2998       C  0.19492230  0.86000991  0.20389910     0.15900
O2999       O  0.18941598  0.84285694  0.14910972    -0.26500
C3000       C  0.19050028  0.82985139  0.17962082     0.05700
C3001       C  0.19406964  0.83952144  0.21451363    -0.31400
O3002       O  0.19527366  0.91545528  0.22364194    -0.23200
C3003       C  0.19312417  0.92835999  0.19352478    -0.03200
C3004       C  0.19204828  0.91840415  0.15721112    -0.17600
H3005       H  0.18923669  0.88100155  0.11257319     0.20400
H3006       H  0.19813182  0.87702102  0.25874713     0.18700
H3007       H  0.19511457  0.83269707  0.24372742     0.18700
H3008       H  0.18951347  0.92507376  0.12891496     0.14500
C3009       C  0.19284601  0.01388826  0.93594728     0.30000
C3010       C  0.19183051  0.02771749  0.96793376    -0.36400
C3011       C  0.19030664  0.01857470  0.00547597     0.16000
C3012       C  0.18985811  0.99731440  0.01137357     0.21800
C3013       C  0.19092721  0.98349360  0.97941866    -0.34500
C3014       C  0.19244152  0.99262891  0.94188101     0.15900
O3015       O  0.19379799  0.01897589  0.89803637    -0.26500
C3016       C  0.19407310  0.00069620  0.87952906     0.05700
C3017       C  0.19330714  0.98381318  0.90541034    -0.31400
O3018       O  0.18874115  0.99219938  0.04921349    -0.23200
C3019       C  0.18843063  0.01045763  0.06774394    -0.03200
C3020       C  0.18934140  0.02736341  0.04194173    -0.17600
H3021       H  0.19213194  0.04442452  0.96383830     0.20400
H3022       H  0.19059415  0.96678928  0.98350647     0.18700
H3023       H  0.19289922  0.96741406  0.89819950     0.18700
H3024       H  0.18973683  0.04375721  0.04921666     0.14500
C3025       C  0.19287885  0.99825929  0.51150594     0.30000
C3026       C  0.19485011  0.98484875  0.47945100    -0.36400
C3027       C  0.19483365  0.99414881  0.44178231     0.16000
C3028       C  0.19294015  0.01516204  0.43582115     0.21800
C3029       C  0.19104617  0.02860925  0.46793284    -0.34500
C3030       C  0.19108389  0.01930800  0.50565132     0.15900
O3031       O  0.19290820  0.99302875  0.54939793    -0.26500
C3032       C  0.19111291  0.01097886  0.56803969     0.05700
C3033       C  0.18987186  0.02782353  0.54228770    -0.31400
O3034       O  0.19259147  0.02023202  0.39782151    -0.23200
C3035       C  0.19435300  0.00221384  0.37933075    -0.03200
C3036       C  0.19589046  0.98552848  0.40525674    -0.17600
H3037       H  0.19626684  0.96831860  0.48356514     0.20400
H3038       H  0.18954679  0.04511440  0.46380158     0.18700
H3039       H  0.18874966  0.04410817  0.54960862     0.18700
H3040       H  0.19695332  0.96920379  0.39814855     0.14500
C3041       C  0.18672283  0.14234528  0.33651678     0.30000
C3042       C  0.18550160  0.12100975  0.34426727    -0.36400
C3043       C  0.18606711  0.10787303  0.31116426     0.16000
C3044       C  0.18787398  0.11520147  0.27306020     0.21800
C3045       C  0.18867444  0.13662458  0.26510314    -0.34500
C3046       C  0.18796734  0.14979026  0.29822581     0.15900
O3047       O  0.18720754  0.15723081  0.36332558    -0.26500
C3048       C  0.18854792  0.17446649  0.34190684     0.05700
C3049       C  0.18895578  0.17086466  0.30120471    -0.31400
O3050       O  0.18917256  0.10001911  0.24710830    -0.23200
C3051       C  0.18796545  0.08280034  0.26881589    -0.03200
C3052       C  0.18587800  0.08672705  0.30877015    -0.17600
H3053       H  0.18452808  0.11502428  0.37416211     0.20400
H3054       H  0.19009888  0.14256698  0.23537328     0.18700
H3055       H  0.19024225  0.18206920  0.27752622     0.18700
H3056       H  0.18494037  0.07560346  0.33275780     0.14500
C3057       C  0.11641898  0.98664879  0.32374313     0.30000
C3058       C  0.12672297  0.97456681  0.32076576    -0.36400
C3059       C  0.13679453  0.98475602  0.30610702     0.16000
C3060       C  0.13681292  0.00546545  0.29517801     0.21800
C3061       C  0.12646925  0.01760383  0.29825027    -0.34500
C3062       C  0.11635017  0.00738546  0.31296607     0.15900
O3063       O  0.10588452  0.97987915  0.33456920    -0.26500
C3064       C  0.09890339  0.99647125  0.33096525     0.05700
C3065       C  0.10495484  0.01410010  0.31780272    -0.31400
O3066       O  0.14732792  0.01178096  0.28259088    -0.23200
C3067       C  0.15410696  0.99483793  0.28549494    -0.03200
C3068       C  0.14796396  0.97759459  0.29984289    -0.17600
H3069       H  0.12683882  0.95824919  0.32883557     0.20400
H3070       H  0.12629468  0.03381653  0.28948205     0.18700
H3071       H  0.10135434  0.02927682  0.31071051     0.18700
H3072       H  0.15131698  0.96208173  0.30553949     0.14500
C3073       C  0.81393624  0.01134851  0.46981775     0.30000
C3074       C  0.81225910  0.02501271  0.50167954    -0.36400
C3075       C  0.81182763  0.01581982  0.53941701     0.16000
C3076       C  0.81302169  0.99466662  0.54560131     0.21800
C3077       C  0.81466843  0.98098328  0.51370781    -0.34500
C3078       C  0.81506207  0.99017569  0.47592408     0.15900
O3079       O  0.81422813  0.01647255  0.43188220    -0.26500
C3080       C  0.81557475  0.99833021  0.41348866     0.05700
C3081       C  0.81614963  0.98145766  0.43942321    -0.31400
O3082       O  0.81272429  0.98959450  0.58359040    -0.23200
C3083       C  0.81125411  0.00775667  0.60184452    -0.03200
C3084       C  0.81060711  0.02456316  0.57579838    -0.17600
H3085       H  0.81131378  0.04163110  0.49735604     0.20400
H3086       H  0.81558582  0.96436001  0.51802636     0.18700
H3087       H  0.81682002  0.96507446  0.43228627     0.18700
H3088       H  0.80980400  0.04094599  0.58279276     0.14500
C3089       C  0.81245914  0.99486762  0.04571470     0.30000
C3090       C  0.81306980  0.98075478  0.01402359    -0.36400
C3091       C  0.81339838  0.98957795  0.97587189     0.16000
C3092       C  0.81318557  0.01079921  0.96930764     0.21800
C3093       C  0.81259330  0.02488442  0.00095162    -0.34500
C3094       C  0.81220820  0.01607259  0.03902845     0.15900
O3095       O  0.81222294  0.99013722  0.08389166    -0.26500
C3096       C  0.81173720  0.00858085  0.10177730     0.05700
C3097       C  0.81171686  0.02523138  0.07528193    -0.31400
O3098       O  0.81323707  0.01562754  0.93122949    -0.23200
C3099       C  0.81348423  0.99725740  0.91312433    -0.03200
C3100       C  0.81361369  0.98050144  0.93942688    -0.17600
H3101       H  0.81322829  0.96408704  0.01875364     0.20400
H3102       H  0.81236116  0.04154885  0.99621084     0.18700
H3103       H  0.81167205  0.04172005  0.08185861     0.18700
H3104       H  0.81352438  0.96403909  0.93262793     0.14500
C3105       C  0.99217600  0.98842090  0.49626735     0.30000
C3106       C  0.00116064  0.97908169  0.47340778    -0.36400
C3107       C  0.01056752  0.99209977  0.46189189     0.16000
C3108       C  0.01104324  0.01287029  0.47209105     0.21800
C3109       C  0.00206598  0.02218820  0.49481117    -0.34500
C3110       C  0.99271012  0.00918509  0.50643564     0.15900
O3111       O  0.98239197  0.97938457  0.50914121    -0.26500
C3112       C  0.97658291  0.99453824  0.52792776     0.05700
C3113       C  0.98262613  0.01342246  0.52719757    -0.31400
O3114       O  0.02082413  0.02199829  0.45969523    -0.23200
C3115       C  0.02677329  0.00695950  0.44120973    -0.03200
C3116       C  0.02078736  0.98797189  0.44155807    -0.17600
H3117       H  0.00084438  0.96280734  0.46522943     0.20400
H3118       H  0.00239393  0.03845088  0.50306408     0.18700
H3119       H  0.97974238  0.02832354  0.53864511     0.18700
H3120       H  0.02377706  0.97312489  0.43016092     0.14500
C3121       C  0.88746398  0.02231327  0.67073580     0.30000
C3122       C  0.87783960  0.03459068  0.68282464    -0.36400
C3123       C  0.86722136  0.02398549  0.69026235     0.16000
C3124       C  0.86609301  0.00271549  0.68622123     0.21800
C3125       C  0.87574950  0.99041297  0.67386145    -0.34500
C3126       C  0.88642023  0.00105045  0.66632333     0.15900
O3127       O  0.89823065  0.02907978  0.66302022    -0.26500
C3128       C  0.90427480  0.01201302  0.65335309     0.05700
C3129       C  0.89735813  0.99404448  0.65478886    -0.31400
O3130       O  0.85522798  0.99616097  0.69414559    -0.23200
C3131       C  0.84933374  0.01350293  0.70329302    -0.03200
C3132       C  0.85639100  0.03125036  0.70127853    -0.17600
H3133       H  0.87858608  0.05129087  0.68622017     0.20400
H3134       H  0.87499124  0.97373095  0.67031481     0.18700
H3135       H  0.90005373  0.97816199  0.64906228     0.18700
H3136       H  0.85381913  0.04727498  0.70625656     0.14500
C3137       C  0.99186979  0.98937081  0.99343212     0.30000
C3138       C  0.00075619  0.97996155  0.97020205    -0.36400
C3139       C  0.00992606  0.99310562  0.95705128     0.16000
C3140       C  0.01025024  0.01403992  0.96603696     0.21800
C3141       C  0.00140591  0.02339287  0.98921482    -0.34500
C3142       C  0.99231288  0.01028131  0.00249493     0.15900
O3143       O  0.98225813  0.98029370  0.00768021    -0.26500
C3144       C  0.97651225  0.99558660  0.02631665     0.05700
C3145       C  0.98240681  0.01456793  0.02405373    -0.31400
O3146       O  0.01981887  0.02330477  0.95229836    -0.23200
C3147       C  0.02580204  0.00821010  0.93413220    -0.03200
C3148       C  0.02004998  0.98901653  0.93611276    -0.17600
H3149       H  0.00054280  0.96356167  0.96294355     0.20400
H3150       H  0.00164435  0.03977371  0.99661725     0.18700
H3151       H  0.97949710  0.02957700  0.03490226     0.18700
H3152       H  0.02317802  0.97407517  0.92561751     0.14500
C3153       C  0.94233946  0.99634342  0.80570119     0.30000
C3154       C  0.93999751  0.98292021  0.83758060    -0.36400
C3155       C  0.93953608  0.99218957  0.87518962     0.16000
C3156       C  0.94132711  0.01319481  0.88127235     0.21800
C3157       C  0.94373878  0.02662402  0.84935441    -0.34500
C3158       C  0.94414930  0.01736029  0.81164317     0.15900
O3159       O  0.94238217  0.99122008  0.76780085    -0.26500
C3160       C  0.94423523  0.00918488  0.74913934     0.05700
C3161       C  0.94549637  0.02595471  0.77496471    -0.31400
O3162       O  0.94085317  0.01833597  0.91922189    -0.23200
C3163       C  0.93870224  0.00035966  0.93757898    -0.03200
C3164       C  0.93776496  0.98362268  0.91156669    -0.17600
H3165       H  0.93848644  0.96644014  0.83330835     0.20400
H3166       H  0.94511288  0.04314266  0.85357455     0.18700
H3167       H  0.94653904  0.04226824  0.76764970     0.18700
H3168       H  0.93649817  0.96732807  0.91864431     0.14500
C3169       C  0.94131362  0.00969671  0.38184374     0.30000
C3170       C  0.94379334  0.02337469  0.35042301    -0.36400
C3171       C  0.94443276  0.01438621  0.31255535     0.16000
C3172       C  0.94268475  0.99341831  0.30587867     0.21800
C3173       C  0.94029036  0.97971644  0.33735997    -0.34500
C3174       C  0.93968025  0.98869347  0.37526714     0.15900
O3175       O  0.94069723  0.01461483  0.41981634    -0.26500
C3176       C  0.93864638  0.99651642  0.43783917     0.05700
C3177       C  0.93790550  0.97986848  0.41153625    -0.31400
O3178       O  0.94289328  0.98864045  0.26775791    -0.23200
C3179       C  0.94485613  0.00678721  0.24982086    -0.03200
C3180       C  0.94599341  0.02328957  0.27631627    -0.17600
H3181       H  0.94508802  0.03987852  0.35513949     0.20400
H3182       H  0.93888176  0.96324860  0.33259556     0.18700
H3183       H  0.93676071  0.96351797  0.41834369     0.18700
H3184       H  0.94704983  0.03967924  0.26965925     0.14500
C3185       C  0.88828008  0.02334544  0.17197440     0.30000
C3186       C  0.87851036  0.03551073  0.18272051    -0.36400
C3187       C  0.86800916  0.02467640  0.19032132     0.16000
C3188       C  0.86710389  0.00329661  0.18777786     0.21800
C3189       C  0.87691263  0.99108215  0.17682620    -0.34500
C3190       C  0.88745765  0.00196843  0.16895093     0.15900
O3191       O  0.89897181  0.03033885  0.16401228    -0.26500
C3192       C  0.90513554  0.01328609  0.15541520     0.05700
C3193       C  0.89842644  0.99513426  0.15792603    -0.31400
O3194       O  0.85626828  0.99658373  0.19541435    -0.23200
C3195       C  0.85021560  0.01396442  0.20279920    -0.03200
C3196       C  0.85710161  0.03184477  0.20003894    -0.17600
H3197       H  0.87904736  0.05229454  0.18484814     0.20400
H3198       H  0.87634587  0.97432007  0.17435117     0.18700
H3199       H  0.90128344  0.97924817  0.15317152     0.18700
H3200       H  0.85436948  0.04788849  0.20366635     0.14500
C3201       C  0.81769879  0.85998915  0.67517334     0.30000
C3202       C  0.82477636  0.87697975  0.68663102    -0.36400
C3203       C  0.81876311  0.89576389  0.69422402     0.16000
C3204       C  0.80661202  0.89749884  0.69159014     0.21800
C3205       C  0.79958720  0.88068016  0.67957699    -0.34500
C3206       C  0.80559943  0.86210166  0.67132535     0.15900
O3207       O  0.82141217  0.84108433  0.66571974    -0.26500
C3208       C  0.81154733  0.83113195  0.65530745     0.05700
C3209       C  0.80147930  0.84349422  0.65811136    -0.31400
O3210       O  0.80272633  0.91603981  0.70209959    -0.23200
C3211       C  0.81250737  0.92659557  0.71070395    -0.03200
C3212       C  0.82278225  0.91483018  0.70617978    -0.17600
H3213       H  0.83429090  0.87567154  0.68929532     0.20400
H3214       H  0.79007185  0.88198849  0.67688484     0.18700
H3215       H  0.79245040  0.83942646  0.65073299     0.18700
H3216       H  0.83179866  0.91935893  0.71265828     0.14500
C3217       C  0.81367965  0.74531965  0.89350417     0.30000
C3218       C  0.81243171  0.73137118  0.86170965    -0.36400
C3219       C  0.81236678  0.74029488  0.82356977     0.16000
C3220       C  0.81349216  0.76143655  0.81714888     0.21800
C3221       C  0.81477983  0.77531981  0.84882769    -0.34500
C3222       C  0.81484064  0.76642756  0.88683115     0.15900
O3223       O  0.81334494  0.74064178  0.93174704    -0.26500
C3224       C  0.81434645  0.75903165  0.94962488     0.05700
C3225       C  0.81536673  0.77555155  0.92305048    -0.31400
O3226       O  0.81344982  0.76640298  0.77914719    -0.23200
C3227       C  0.81225603  0.74821953  0.76084715    -0.03200
C3228       C  0.81150580  0.73142352  0.78700801    -0.17600
H3229       H  0.81145709  0.71478615  0.86637263     0.20400
H3230       H  0.81561210  0.79193055  0.84418094     0.18700
H3231       H  0.81582252  0.79203416  0.92951336     0.18700
H3232       H  0.81081033  0.71502751  0.78002623     0.14500
C3233       C  0.80844585  0.76850495  0.31816453     0.30000
C3234       C  0.80999142  0.78208443  0.35040994    -0.36400
C3235       C  0.81102173  0.77262731  0.38794902     0.16000
C3236       C  0.81058862  0.75132837  0.39336787     0.21800
C3237       C  0.80895508  0.73783171  0.36131376    -0.34500
C3238       C  0.80786862  0.74725408  0.32398609     0.15900
O3239       O  0.80804748  0.77367488  0.28011849    -0.26500
C3240       C  0.80715717  0.75543091  0.26160702     0.05700
C3241       C  0.80688052  0.73856690  0.28756819    -0.31400
O3242       O  0.81145327  0.74581271  0.43096692    -0.23200
C3243       C  0.81241791  0.76380192  0.45006801    -0.03200
C3244       C  0.81223724  0.78102276  0.42480719    -0.17600
H3245       H  0.81047845  0.79878815  0.34649889     0.20400
H3246       H  0.80860783  0.72111217  0.36517797     0.18700
H3247       H  0.80672954  0.72214085  0.28044842     0.18700
H3248       H  0.81250799  0.79735092  0.43263827     0.14500
C3249       C  0.81082383  0.90287946  0.17208538     0.30000
C3250       C  0.80656912  0.89032157  0.14115440    -0.36400
C3251       C  0.80795979  0.86877591  0.14637703     0.16000
C3252       C  0.81334008  0.86023229  0.17942710     0.21800
C3253       C  0.81755368  0.87275399  0.21033339    -0.34500
C3254       C  0.81601301  0.89422509  0.20539334     0.15900
O3255       O  0.80983274  0.92330027  0.17462236    -0.26500
C3256       C  0.81438431  0.92762904  0.21006885     0.05700
C3257       C  0.81834925  0.91020877  0.23053560    -0.31400
O3258       O  0.81393184  0.83977902  0.17789945    -0.23200
C3259       C  0.80876599  0.83508821  0.14361412    -0.03200
C3260       C  0.80481093  0.85249417  0.12277562    -0.17600
H3261       H  0.80229151  0.89686091  0.11521501     0.20400
H3262       H  0.82159870  0.86618750  0.23666666     0.18700
H3263       H  0.82199144  0.90941254  0.26023460     0.18700
H3264       H  0.80054699  0.85306828  0.09400884     0.14500
C3265       C  0.99080543  0.74766969  0.85724464     0.30000
C3266       C  0.99824854  0.73246263  0.87390006    -0.36400
C3267       C  0.00812904  0.73987011  0.89477434     0.16000
C3268       C  0.01050389  0.76081138  0.89899251     0.21800
C3269       C  0.00301705  0.77602171  0.88255440    -0.34500
C3270       C  0.99317201  0.76860849  0.86151073     0.15900
O3271       O  0.98085520  0.74421516  0.83791547    -0.26500
C3272       C  0.97677655  0.76317350  0.82949004     0.05700
C3273       C  0.98412988  0.77897265  0.84331607    -0.31400
O3274       O  0.02062285  0.76425604  0.91732185    -0.23200
C3275       C  0.02481473  0.74529494  0.92510956    -0.03200
C3276       C  0.01734614  0.72949846  0.91197301    -0.17600
H3277       H  0.99648561  0.71599830  0.87063487     0.20400
H3278       H  0.00482636  0.79248556  0.88554780     0.18700
H3279       H  0.98265472  0.79561681  0.84226887     0.18700
H3280       H  0.01887480  0.71286455  0.91256974     0.14500
C3281       C  0.94339806  0.86620310  0.70919122     0.30000
C3282       C  0.94527427  0.88740937  0.71694330    -0.36400
C3283       C  0.94286834  0.90110805  0.68549858     0.16000
C3284       C  0.93911574  0.89432100  0.64871341     0.21800
C3285       C  0.93700783  0.87316136  0.64121922    -0.34500
C3286       C  0.93922860  0.85949525  0.67287773     0.15900
O3287       O  0.94521417  0.85072351  0.73417884    -0.26500
C3288       C  0.94202279  0.83388945  0.71386439     0.05700
C3289       C  0.93816892  0.83838695  0.67554519    -0.31400
O3290       O  0.93807339  0.90964763  0.62290899    -0.23200
C3291       C  0.94094427  0.92648757  0.64365419    -0.03200
C3292       C  0.94393209  0.92221099  0.68285969    -0.17600
H3293       H  0.94846609  0.89282273  0.74540966     0.20400
H3294       H  0.93396148  0.86772556  0.61258966     0.18700
H3295       H  0.93515267  0.82766714  0.65294796     0.18700
H3296       H  0.94687907  0.93296590  0.70549918     0.14500
C3297       C  0.88858261  0.75798783  0.69299936     0.30000
C3298       C  0.87931507  0.76921883  0.67472751    -0.36400
C3299       C  0.86850710  0.75853465  0.67006985     0.16000
C3300       C  0.86703080  0.73822245  0.68246581     0.21800
C3301       C  0.87621099  0.72710621  0.70079413    -0.34500
C3302       C  0.88691703  0.73776150  0.70559917     0.15900
O3303       O  0.89961628  0.76435422  0.69839609    -0.26500
C3304       C  0.90503387  0.74795710  0.71473959     0.05700
C3305       C  0.89748843  0.73107965  0.72013855    -0.31400
O3306       O  0.85624925  0.73124897  0.67621576    -0.23200
C3307       C  0.85056573  0.74723122  0.65974567    -0.03200
C3308       C  0.85777532  0.76469613  0.65493642    -0.17600
H3309       H  0.88047727  0.78508020  0.66458066     0.20400
H3310       H  0.87508644  0.71116164  0.71053368     0.18700
H3311       H  0.89965438  0.71569268  0.73112713     0.18700
H3312       H  0.85536941  0.77982557  0.64326298     0.14500
C3313       C  0.98752943  0.74898768  0.36144465     0.30000
C3314       C  0.99509780  0.73407047  0.37850395    -0.36400
C3315       C  0.00535303  0.74170041  0.39705733     0.16000
C3316       C  0.00810340  0.76258891  0.39850528     0.21800
C3317       C  0.00051328  0.77756799  0.38136788    -0.34500
C3318       C  0.99017660  0.76992429  0.36299942     0.15900
O3319       O  0.97724650  0.74525224  0.34412984    -0.26500
C3320       C  0.97316420  0.76402742  0.33419028     0.05700
C3321       C  0.98087473  0.77998156  0.34527909    -0.31400
O3322       O  0.01839789  0.76610032  0.41620580    -0.23200
C3323       C  0.02224212  0.74718717  0.42665792    -0.03200
C3324       C  0.01443032  0.73148511  0.41536316    -0.17600
H3325       H  0.99308165  0.71761191  0.37763087     0.20400
H3326       H  0.00250961  0.79403215  0.38235174     0.18700
H3327       H  0.97957230  0.79660414  0.34226651     0.18700
H3328       H  0.01555394  0.71482818  0.41850386     0.14500
C3329       C  0.93613142  0.77008639  0.47765586     0.30000
C3330       C  0.93840892  0.78076417  0.51311785    -0.36400
C3331       C  0.93932003  0.76842499  0.54727631     0.16000
C3332       C  0.93796238  0.74707850  0.54649020     0.21800
C3333       C  0.93573767  0.73638345  0.51100484    -0.34500
C3334       C  0.93487592  0.74872180  0.47681714     0.15900
O3335       O  0.93561660  0.77844467  0.44205620    -0.26500
C3336       C  0.93399512  0.76228715  0.41802549     0.05700
C3337       C  0.93340562  0.74334520  0.43799414    -0.31400
O3338       O  0.93872702  0.73869544  0.58201330    -0.23200
C3339       C  0.94069590  0.75481701  0.60584546    -0.03200
C3340       C  0.94123617  0.77375114  0.58591520    -0.17600
H3341       H  0.93951419  0.79749148  0.51391604     0.20400
H3342       H  0.93478693  0.71962618  0.51013115     0.18700
H3343       H  0.93273554  0.72786358  0.42555798     0.18700
H3344       H  0.94235342  0.78916965  0.59826751     0.14500
C3345       C  0.94016754  0.74952656  0.97408658     0.30000
C3346       C  0.94218293  0.73609052  0.00633002    -0.36400
C3347       C  0.94265378  0.74545461  0.04397653     0.16000
C3348       C  0.94115601  0.76655646  0.04973497     0.21800
C3349       C  0.93918110  0.78000136  0.01747607    -0.34500
C3350       C  0.93876340  0.77065164  0.97981005     0.15900
O3351       O  0.93987205  0.74426887  0.93613597    -0.26500
C3352       C  0.93825286  0.76229077  0.91726729     0.05700
C3353       C  0.93747847  0.77918350  0.94305435    -0.31400
O3354       O  0.94128931  0.77177244  0.08772177    -0.23200
C3355       C  0.94296642  0.75376540  0.10657814    -0.03200
C3356       C  0.94395214  0.73692376  0.08071794    -0.17600
H3357       H  0.94332584  0.71949532  0.00235922     0.20400
H3358       H  0.93800206  0.79658746  0.02145923     0.18700
H3359       H  0.93663667  0.79552130  0.93563002     0.18700
H3360       H  0.94481247  0.72057984  0.08807865     0.14500
C3361       C  0.93902166  0.85943340  0.17507939     0.30000
C3362       C  0.94053739  0.87108759  0.14018134    -0.36400
C3363       C  0.93963607  0.89275750  0.14418116     0.16000
C3364       C  0.93715079  0.90237516  0.17986601     0.21800
C3365       C  0.93575433  0.89072209  0.21491468    -0.34500
C3366       C  0.93693079  0.86904152  0.21107166     0.15900
O3367       O  0.93974497  0.83898619  0.17825090    -0.26500
C3368       C  0.93831465  0.83547659  0.21689017     0.05700
C3369       C  0.93659303  0.85357625  0.23880546    -0.31400
O3370       O  0.93679236  0.92287590  0.17667071    -0.23200
C3371       C  0.93927946  0.92637887  0.13856916    -0.03200
C3372       C  0.94113301  0.90822271  0.11701072    -0.17600
H3373       H  0.94248577  0.86378576  0.11197847     0.20400
H3374       H  0.93408383  0.89805907  0.24328588     0.18700
H3375       H  0.93525704  0.85505793  0.27051898     0.18700
H3376       H  0.94333835  0.90668966  0.08585646     0.14500
C3377       C  0.86416445  0.74204188  0.17201711     0.30000
C3378       C  0.87421354  0.72959458  0.17691283    -0.36400
C3379       C  0.88466335  0.73998687  0.18666089     0.16000
C3380       C  0.88529416  0.76125929  0.19164658     0.21800
C3381       C  0.87513753  0.77385463  0.18671124    -0.34500
C3382       C  0.86458383  0.76337504  0.17651019     0.15900
O3383       O  0.85352764  0.73517956  0.16338344    -0.26500
C3384       C  0.84686249  0.75220023  0.16182797     0.05700
C3385       C  0.85325819  0.77035831  0.16970459    -0.31400
O3386       O  0.89616061  0.76749409  0.20057788    -0.23200
C3387       C  0.90246922  0.74989447  0.20108997    -0.03200
C3388       C  0.89571545  0.73238769  0.19263917    -0.17600
H3389       H  0.87389842  0.71286595  0.17329466     0.20400
H3390       H  0.87544936  0.79057468  0.19041349     0.18700
H3391       H  0.84999707  0.78618274  0.17125523     0.18700
H3392       H  0.89857268  0.71632377  0.19086279     0.14500
C3393       C  0.80919282  0.11276591  0.78448564     0.30000
C3394       C  0.80957243  0.13270807  0.76742997    -0.36400
C3395       C  0.81021727  0.14934332  0.79413585     0.16000
C3396       C  0.81066004  0.14641174  0.83474467     0.21800
C3397       C  0.80996125  0.12651409  0.85180690    -0.34500
C3398       C  0.80911515  0.10989654  0.82513779     0.15900
O3399       O  0.80968002  0.09506470  0.76508356    -0.26500
C3400       C  0.80966645  0.08066655  0.79353313     0.05700
C3401       C  0.80917657  0.08890953  0.83159827    -0.31400
O3402       O  0.81208687  0.16395321  0.85412248    -0.23200
C3403       C  0.81232014  0.17834808  0.82572060    -0.03200
C3404       C  0.81112319  0.17026668  0.78769903    -0.17600
H3405       H  0.80972784  0.13503349  0.73558097     0.20400
H3406       H  0.81038984  0.12413862  0.88361044     0.18700
H3407       H  0.80973526  0.08073489  0.85968033     0.18700
H3408       H  0.81131099  0.17849657  0.75961533     0.14500
C3409       C  0.80366057  0.14626696  0.32914435     0.30000
C3410       C  0.80180950  0.12618064  0.34429747    -0.36400
C3411       C  0.80562941  0.10980178  0.32017294     0.16000
C3412       C  0.81099416  0.11309093  0.28385610     0.21800
C3413       C  0.81261159  0.13315341  0.26831916    -0.34500
C3414       C  0.80866264  0.14953649  0.29223152     0.15900
O3415       O  0.80208258  0.16368998  0.34872330    -0.26500
C3416       C  0.80586583  0.17835132  0.32384474     0.05700
C3417       C  0.80995965  0.17053634  0.28795084    -0.31400
O3418       O  0.81446759  0.09567681  0.26720180    -0.23200
C3419       C  0.81117400  0.08102655  0.29286548    -0.03200
C3420       C  0.80557124  0.08881595  0.32641285    -0.17600
H3421       H  0.79807469  0.12355720  0.37349319     0.20400
H3422       H  0.81698959  0.13580605  0.24015754     0.18700
H3423       H  0.81439267  0.17884804  0.26423542     0.18700
H3424       H  0.80217047  0.08033125  0.35177052     0.14500
C3425       C  0.81790466  0.24867204  0.57621853     0.30000
C3426       C  0.82020414  0.23793373  0.61174243    -0.36400
C3427       C  0.81856100  0.24929257  0.64679303     0.16000
C3428       C  0.81505084  0.26987317  0.64666229     0.21800
C3429       C  0.81281943  0.28064483  0.61112800    -0.34500
C3430       C  0.81429936  0.26920418  0.57611164     0.15900
O3431       O  0.81830715  0.24072513  0.54030127    -0.26500
C3432       C  0.81481126  0.25624877  0.51684703     0.05700
C3433       C  0.81223928  0.27444585  0.53740652    -0.31400
O3434       O  0.81358826  0.27726784  0.68270903    -0.23200
C3435       C  0.81616662  0.26127753  0.70637708    -0.03200
C3436       C  0.81932508  0.24338199  0.68570030    -0.17600
H3437       H  0.82277916  0.22170257  0.61202495     0.20400
H3438       H  0.80981591  0.29664695  0.61089238     0.18700
H3439       H  0.80914783  0.28917424  0.52565513     0.18700
H3440       H  0.82150332  0.22817302  0.69752237     0.14500
C3441       C  0.81161573  0.24739031  0.15033671     0.30000
C3442       C  0.81035677  0.23346391  0.11858875    -0.36400
C3443       C  0.80924462  0.24248929  0.08075853     0.16000
C3444       C  0.80940433  0.26372827  0.07444595     0.21800
C3445       C  0.81061167  0.27764231  0.10620112    -0.34500
C3446       C  0.81172294  0.26862515  0.14398365     0.15900
O3447       O  0.81239181  0.24245386  0.18835657    -0.26500
C3448       C  0.81303601  0.26080222  0.20650141     0.05700
C3449       C  0.81269340  0.27758309  0.18029476    -0.31400
O3450       O  0.80887010  0.26870617  0.03640859    -0.23200
C3451       C  0.80829131  0.25040297  0.01808349    -0.03200
C3452       C  0.80843095  0.23357959  0.04429311    -0.17600
H3453       H  0.81026841  0.21677395  0.12303880     0.20400
H3454       H  0.81076649  0.29433025  0.10174866     0.18700
H3455       H  0.81262840  0.29403699  0.18718867     0.18700
H3456       H  0.80857664  0.21713658  0.03732763     0.14500
C3457       C  0.98762643  0.24664853  0.61211543     0.30000
C3458       C  0.99577359  0.23177717  0.62592761    -0.36400
C3459       C  0.00557757  0.23953414  0.64681603     0.16000
C3460       C  0.00728842  0.26048562  0.65363876     0.21800
C3461       C  0.99912987  0.27535871  0.63986651    -0.34500
C3462       C  0.98934854  0.26760529  0.61883389     0.15900
O3463       O  0.97756059  0.24279025  0.59359010    -0.26500
C3464       C  0.97277767  0.26154444  0.58808735     0.05700
C3465       C  0.97979304  0.27755919  0.60298987    -0.31400
O3466       O  0.01747258  0.26436522  0.67142247    -0.23200
C3467       C  0.02236388  0.24563986  0.67617830    -0.03200
C3468       C  0.01528236  0.22961945  0.66165737    -0.17600
H3469       H  0.99456943  0.21529960  0.62067218     0.20400
H3470       H  0.00038484  0.29185018  0.64482405     0.18700
H3471       H  0.97778197  0.29402278  0.60421423     0.18700
H3472       H  0.01737374  0.21320594  0.65971620     0.14500
C3473       C  0.93956701  0.14655685  0.52885658     0.30000
C3474       C  0.93794287  0.12760883  0.50900273    -0.36400
C3475       C  0.94097468  0.10970622  0.53041685     0.16000
C3476       C  0.94521865  0.11050776  0.56884482     0.21800
C3477       C  0.94714343  0.12949023  0.58829549    -0.34500
C3478       C  0.94416546  0.14740933  0.56679677     0.15900
O3479       O  0.93645553  0.16497246  0.51550387    -0.26500
C3480       C  0.93917935  0.17784837  0.54499346     0.05700
C3481       C  0.94413249  0.16787702  0.57765967    -0.31400
O3482       O  0.94609839  0.09196280  0.58504040    -0.23200
C3483       C  0.94265087  0.07913054  0.55641993    -0.03200
C3484       C  0.93938524  0.08919316  0.52160790    -0.17600
H3485       H  0.93411110  0.12685642  0.47958125     0.20400
H3486       H  0.95023141  0.13017847  0.61868946     0.18700
H3487       H  0.94684329  0.17458620  0.60567589     0.18700
H3488       H  0.93546987  0.08253026  0.49519466     0.14500
C3489       C  0.86416611  0.25860485  0.41709773     0.30000
C3490       C  0.87354074  0.27048667  0.43272089    -0.36400
C3491       C  0.88432181  0.25991336  0.43847781     0.16000
C3492       C  0.88573139  0.23914188  0.42925163     0.21800
C3493       C  0.87643958  0.22737430  0.41331121    -0.34500
C3494       C  0.86570612  0.23788702  0.40769136     0.15900
O3495       O  0.85309072  0.26477112  0.41224918    -0.26500
C3496       C  0.84750904  0.24778308  0.39938631     0.05700
C3497       C  0.85496858  0.23065317  0.39580567    -0.31400
O3498       O  0.89639451  0.23216090  0.43770550    -0.23200
C3499       C  0.90198993  0.24858338  0.45270843    -0.03200
C3500       C  0.89492036  0.26637828  0.45382558    -0.17600
H3501       H  0.87241717  0.28666374  0.44080880     0.20400
H3502       H  0.87743748  0.21099481  0.40660645     0.18700
H3503       H  0.85264909  0.21482549  0.38806906     0.18700
H3504       H  0.89725675  0.28175937  0.46425544     0.14500
C3505       C  0.01249237  0.26194347  0.14806721     0.30000
C3506       C  0.00401469  0.27697631  0.13737358    -0.36400
C3507       C  0.99413853  0.26969426  0.11617569     0.16000
C3508       C  0.99263876  0.24902474  0.10637359     0.21800
C3509       C  0.00109892  0.23398680  0.11718455    -0.34500
C3510       C  0.01098619  0.24126772  0.13832402     0.15900
O3511       O  0.02266806  0.26544971  0.16622282    -0.26500
C3512       C  0.02774189  0.24673701  0.16847739     0.05700
C3513       C  0.02082421  0.23110983  0.15167069    -0.31400
O3514       O  0.98251223  0.24553746  0.08787353    -0.23200
C3515       C  0.97746582  0.26425974  0.08544170    -0.03200
C3516       C  0.98434476  0.27986285  0.10255807    -0.17600
H3517       H  0.00507933  0.29324649  0.14484007     0.20400
H3518       H  0.00004349  0.21772429  0.10965854     0.18700
H3519       H  0.02301613  0.21482597  0.14792792     0.18700
H3520       H  0.98215384  0.29614998  0.10629077     0.14500
C3521       C  0.94563797  0.11294324  0.08063706     0.30000
C3522       C  0.94580155  0.13191148  0.10133612    -0.36400
C3523       C  0.94579864  0.14996814  0.07789176     0.16000
C3524       C  0.94546293  0.14926190  0.03692873     0.21800
C3525       C  0.94568911  0.13030765  0.01625228    -0.34500
C3526       C  0.94586318  0.11226367  0.03966897     0.15900
O3527       O  0.94441958  0.09435616  0.09655391    -0.26500
C3528       C  0.94412446  0.08155512  0.06552343     0.05700
C3529       C  0.94510751  0.09175607  0.02926624    -0.31400
O3530       O  0.94408193  0.16779828  0.02096450    -0.23200
C3531       C  0.94378915  0.18062241  0.05191990    -0.03200
C3532       C  0.94494667  0.17048747  0.08821787    -0.17600
H3533       H  0.94542785  0.13253406  0.13343952     0.20400
H3534       H  0.94523048  0.12967810  0.98416668     0.18700
H3535       H  0.94446856  0.08519930  0.99975752     0.18700
H3536       H  0.94437170  0.17708498  0.11771583     0.14500
C3537       C  0.93949325  0.24511817  0.80660457     0.30000
C3538       C  0.93804480  0.23362874  0.77148172    -0.36400
C3539       C  0.93606795  0.24528723  0.73686463     0.16000
C3540       C  0.93561930  0.26675111  0.73702066     0.21800
C3541       C  0.93706911  0.27821900  0.77209502    -0.34500
C3542       C  0.93904330  0.26658014  0.80664978     0.15900
O3543       O  0.94082807  0.23737294  0.84251973    -0.26500
C3544       C  0.94126800  0.25405252  0.86591060     0.05700
C3545       C  0.94029782  0.27270949  0.84518199    -0.31400
O3546       O  0.93443042  0.27459099  0.70117508    -0.23200
C3547       C  0.93406888  0.25801794  0.67754924    -0.03200
C3548       C  0.93494738  0.23927155  0.69813606    -0.17600
H3549       H  0.93841889  0.21679409  0.77121026     0.20400
H3550       H  0.93675875  0.29505769  0.77233912     0.18700
H3551       H  0.93987906  0.28835438  0.85698230     0.18700
H3552       H  0.93551833  0.22368294  0.68613986     0.14500
C3553       C  0.94028307  0.27040592  0.23774984     0.30000
C3554       C  0.94019900  0.28109974  0.27404138    -0.36400
C3555       C  0.94165359  0.26878097  0.30808214     0.16000
C3556       C  0.94308744  0.24745473  0.30636105     0.21800
C3557       C  0.94318773  0.23679639  0.27014834    -0.34500
C3558       C  0.94168229  0.24907389  0.23620336     0.15900
O3559       O  0.93927070  0.27880124  0.20222545    -0.26500
C3560       C  0.93991806  0.26260892  0.17772681     0.05700
C3561       C  0.94141152  0.24370284  0.19719878    -0.31400
O3562       O  0.94365999  0.23884287  0.34171198    -0.23200
C3563       C  0.94263776  0.25480749  0.36650837    -0.03200
C3564       C  0.94140568  0.27388800  0.34732576    -0.17600
H3565       H  0.93899511  0.29779444  0.27561946     0.20400
H3566       H  0.94420112  0.22006191  0.26861098     0.18700
H3567       H  0.94255657  0.22838295  0.18441157     0.18700
H3568       H  0.93987040  0.28904848  0.36034721     0.14500
C3569       C  0.86522574  0.25996306  0.93536806     0.30000
C3570       C  0.87510165  0.27264269  0.94402861    -0.36400
C3571       C  0.88575403  0.26208802  0.95289642     0.16000
C3572       C  0.88653781  0.24064593  0.95277438     0.21800
C3573       C  0.87678166  0.22812917  0.94408017    -0.34500
C3574       C  0.86623565  0.23856599  0.93565496     0.15900
O3575       O  0.85428182  0.26615034  0.92718477    -0.26500
C3576       C  0.84833190  0.24836096  0.92236412     0.05700
C3577       C  0.85538338  0.23083244  0.92732284    -0.31400
O3578       O  0.89719656  0.23379459  0.96128863    -0.23200
C3579       C  0.90349336  0.25092957  0.96739956    -0.03200
C3580       C  0.89685377  0.26913103  0.96254677    -0.17600
H3581       H  0.87450645  0.28945689  0.94415893     0.20400
H3582       H  0.87736406  0.21131028  0.94412775     0.18700
H3583       H  0.85282022  0.21462314  0.92561757     0.18700
H3584       H  0.89982712  0.28509454  0.96484366     0.14500
C3585       C  0.80252510  0.61148524  0.55500661     0.30000
C3586       C  0.79949403  0.63100206  0.53903177    -0.36400
C3587       C  0.80518068  0.64826470  0.55581777     0.16000
C3588       C  0.81327236  0.64636979  0.58627971     0.21800
C3589       C  0.81616109  0.62691415  0.60269966    -0.34500
C3590       C  0.81045893  0.60966125  0.58596518     0.15900
O3591       O  0.79943513  0.59326167  0.54046403    -0.26500
C3592       C  0.80523197  0.57953853  0.56286736     0.05700
C3593       C  0.81223606  0.58885674  0.59171671    -0.31400
O3594       O  0.81777903  0.66440695  0.59679151    -0.23200
C3595       C  0.81250379  0.67810516  0.57291390    -0.03200
C3596       C  0.80453967  0.66898314  0.54674453    -0.17600
H3597       H  0.79346820  0.63253655  0.51422514     0.20400
H3598       H  0.82267751  0.62529619  0.62605689     0.18700
H3599       H  0.81866145  0.58149297  0.61101375     0.18700
H3600       H  0.79904470  0.67650466  0.52464330     0.14500
C3601       C  0.81311235  0.39450862  0.46783277     0.30000
C3602       C  0.81514149  0.37348186  0.47693252    -0.36400
C3603       C  0.81349884  0.35943754  0.44562786     0.16000
C3604       C  0.80997833  0.36571454  0.40819345     0.21800
C3605       C  0.80827948  0.38675468  0.39884282    -0.34500
C3606       C  0.81006005  0.40079999  0.42994249     0.15900
O3607       O  0.81329018  0.41009478  0.49312183    -0.26500
C3608       C  0.81057242  0.42654686  0.47090380     0.05700
C3609       C  0.80856925  0.42180476  0.43130174    -0.31400
O3610       O  0.80825746  0.34996733  0.38403570    -0.23200
C3611       C  0.81087060  0.33339482  0.40599306    -0.03200
C3612       C  0.81428101  0.33827165  0.44455790    -0.17600
H3613       H  0.81752547  0.36839827  0.50654007     0.20400
H3614       H  0.80548745  0.39176736  0.36959962     0.18700
H3615       H  0.80579837  0.43214240  0.40763029     0.18700
H3616       H  0.81664835  0.32775469  0.46844204     0.14500
C3617       C  0.79874032  0.61254398  0.05239927     0.30000
C3618       C  0.79628475  0.63241393  0.03697895    -0.36400
C3619       C  0.80122117  0.64923632  0.05756953     0.16000
C3620       C  0.80809138  0.64661617  0.09106904     0.21800
C3621       C  0.81031642  0.62676422  0.10704586    -0.34500
C3622       C  0.80534600  0.60992341  0.08651186     0.15900
O3623       O  0.79643638  0.59476052  0.03471946    -0.26500
C3624       C  0.80136880  0.58046623  0.05812859     0.05700
C3625       C  0.80697448  0.58896589  0.09106560    -0.31400
O3626       O  0.81237991  0.66435324  0.10429355    -0.23200
C3627       C  0.80817580  0.67856900  0.07910626    -0.03200
C3628       C  0.80110847  0.67008526  0.04947680    -0.17600
H3629       H  0.79134773  0.63453586  0.00973012     0.20400
H3630       H  0.81593075  0.62456008  0.13275004     0.18700
H3631       H  0.81259797  0.58111105  0.11237651     0.18700
H3632       H  0.79668189  0.67806131  0.02534092     0.14500
C3633       C  0.81262667  0.50717506  0.73175201     0.30000
C3634       C  0.81385481  0.52037034  0.76448417    -0.36400
C3635       C  0.81193099  0.51121854  0.80172303     0.16000
C3636       C  0.80897343  0.49052607  0.80679752     0.21800
C3637       C  0.80788842  0.47723721  0.77403900    -0.34500
C3638       C  0.80985522  0.48639191  0.73671735     0.15900
O3639       O  0.81343381  0.51266680  0.69403484    -0.26500
C3640       C  0.81126780  0.49508952  0.67462345     0.05700
C3641       C  0.80903214  0.47826310  0.69970260    -0.31400
O3642       O  0.80732139  0.48551220  0.84451207    -0.23200
C3643       C  0.80931855  0.50327822  0.86358776    -0.03200
C3644       C  0.81222653  0.51969341  0.83842373    -0.17600
H3645       H  0.81596441  0.53671264  0.76115003     0.20400
H3646       H  0.80551676  0.46100450  0.77732988     0.18700
H3647       H  0.80664749  0.46249778  0.69171947     0.18700
H3648       H  0.81422577  0.53566020  0.84615075     0.14500
C3649       C  0.80656305  0.49534557  0.30692470     0.30000
C3650       C  0.80792984  0.48153883  0.27505656    -0.36400
C3651       C  0.80879149  0.49066774  0.23728427     0.16000
C3652       C  0.80832999  0.51190068  0.23105061     0.21800
C3653       C  0.80696271  0.52571052  0.26294495    -0.34500
C3654       C  0.80607456  0.51657975  0.30074336     0.15900
O3655       O  0.80603368  0.49028981  0.34492267    -0.26500
C3656       C  0.80514407  0.50854565  0.36331497     0.05700
C3657       C  0.80507042  0.52540098  0.33723550    -0.31400
O3658       O  0.80879744  0.51692448  0.19299372    -0.23200
C3659       C  0.80958828  0.49863121  0.17469713    -0.03200
C3660       C  0.80967571  0.48181306  0.20085830    -0.17600
H3661       H  0.80830337  0.46485068  0.27938485     0.20400
H3662       H  0.80655885  0.54239316  0.25860340     0.18700
H3663       H  0.80486409  0.54182853  0.34429909     0.18700
H3664       H  0.80980507  0.46536942  0.19388503     0.14500
C3665       C  0.81094062  0.35727135  0.94764945     0.30000
C3666       C  0.80899192  0.36959206  0.98131513    -0.36400
C3667       C  0.80972913  0.39115466  0.97541783     0.16000
C3668       C  0.81247692  0.40004768  0.93917586     0.21800
C3669       C  0.81436487  0.38772968  0.90545809    -0.34500
C3670       C  0.81333378  0.36618719  0.91113570     0.15900
O3671       O  0.81018662  0.33680159  0.94591650    -0.26500
C3672       C  0.81193748  0.33268655  0.90769499     0.05700
C3673       C  0.81387580  0.35031108  0.88465044    -0.31400
O3674       O  0.81242013  0.42057681  0.94032460    -0.23200
C3675       C  0.80940311  0.42480538  0.97762599    -0.03200
C3676       C  0.80763052  0.40713686  0.00076769    -0.17600
H3677       H  0.80674017  0.36287163  0.00984044     0.20400
H3678       H  0.81617812  0.39448234  0.87661078     0.18700
H3679       H  0.81534533  0.35123574  0.85291680     0.18700
H3680       H  0.80502168  0.40625037  0.03167157     0.14500
C3681       C  0.98572994  0.51294991  0.77828383     0.30000
C3682       C  0.99404418  0.52712756  0.76309445    -0.36400
C3683       C  0.00405009  0.51844256  0.74460172     0.16000
C3684       C  0.00584281  0.49726746  0.74135258     0.21800
C3685       C  0.99750979  0.48307994  0.75649241    -0.34500
C3686       C  0.98750631  0.49176982  0.77501436     0.15900
O3687       O  0.97550411  0.51762417  0.79525318    -0.26500
C3688       C  0.97068900  0.49916138  0.80326064     0.05700
C3689       C  0.97781156  0.48256762  0.79138006    -0.31400
O3690       O  0.01616539  0.49262810  0.72492843    -0.23200
C3691       C  0.02103244  0.51111254  0.71727318    -0.03200
C3692       C  0.01381803  0.52766530  0.72878194    -0.17600
H3693       H  0.99280644  0.54378442  0.76552263     0.20400
H3694       H  0.99877318  0.46642079  0.75427430     0.18700
H3695       H  0.97583174  0.46609535  0.79268122     0.18700
H3696       H  0.01581460  0.54413664  0.72788389     0.14500
C3697       C  0.93762349  0.61475535  0.84567502     0.30000
C3698       C  0.93607211  0.63503891  0.86025975    -0.36400
C3699       C  0.94107199  0.65102354  0.83733947     0.16000
C3700       C  0.94710867  0.64717259  0.80243548     0.21800
C3701       C  0.94895349  0.62689270  0.78853040    -0.34500
C3702       C  0.94395895  0.61097480  0.81137197     0.15900
O3703       O  0.93307987  0.59764058  0.86087148    -0.26500
C3704       C  0.93659581  0.58276678  0.83603707     0.05700
C3705       C  0.94345730  0.59010601  0.80481525    -0.31400
O3706       O  0.94946315  0.66429470  0.78260864    -0.23200
C3707       C  0.94514071  0.67938806  0.80534146    -0.03200
C3708       C  0.93989954  0.67213089  0.84004969    -0.17600
H3709       H  0.93087095  0.63819302  0.88657927     0.20400
H3710       H  0.95341801  0.62382646  0.76069318     0.18700
H3711       H  0.94735516  0.58137790  0.78064012     0.18700
H3712       H  0.93479816  0.68087355  0.86153700     0.14500
C3713       C  0.93373098  0.36439657  0.96363693     0.30000
C3714       C  0.92620481  0.38135303  0.95601021    -0.36400
C3715       C  0.93173196  0.39971433  0.94305046     0.16000
C3716       C  0.94379790  0.40110024  0.93713368     0.21800
C3717       C  0.95133873  0.38434194  0.94566697    -0.34500
C3718       C  0.94584167  0.36615491  0.95935422     0.15900
O3719       O  0.93049185  0.34566219  0.97557546    -0.26500
C3720       C  0.94068779  0.33548042  0.97950879     0.05700
C3721       C  0.95052136  0.34748049  0.97019125    -0.31400
O3722       O  0.94698532  0.41912862  0.92183257    -0.23200
C3723       C  0.93687649  0.42962324  0.91878243    -0.03200
C3724       C  0.92709474  0.41843566  0.93186453    -0.17600
H3725       H  0.91670658  0.38024681  0.95954091     0.20400
H3726       H  0.96081652  0.38532408  0.94141472     0.18700
H3727       H  0.95975391  0.34300355  0.97107963     0.18700
H3728       H  0.91787628  0.42299517  0.93097781     0.14500
C3729       C  0.86036100  0.50202453  0.96185588     0.30000
C3730       C  0.86998679  0.49044504  0.94696109    -0.36400
C3731       C  0.88081742  0.50114143  0.94362621     0.16000
C3732       C  0.88203654  0.52173752  0.95442429     0.21800
C3733       C  0.87249987  0.53316990  0.96970212    -0.34500
C3734       C  0.86171627  0.52256395  0.97281410     0.15900
O3735       O  0.84926239  0.49568712  0.96510094    -0.26500
C3736       C  0.84348124  0.51240046  0.97844635     0.05700
C3737       C  0.85082435  0.52952404  0.98381294    -0.31400
O3738       O  0.89275321  0.52897454  0.94774017    -0.23200
C3739       C  0.89858481  0.51289820  0.93234099    -0.03200
C3740       C  0.89162289  0.49504908  0.92927831    -0.17600
H3741       H  0.86902703  0.47441641  0.93767684     0.20400
H3742       H  0.87336384  0.54940598  0.97770900     0.18700
H3743       H  0.84838298  0.54512718  0.99273989     0.18700
H3744       H  0.89413210  0.47992213  0.91793423     0.14500
C3745       C  0.00679539  0.49813019  0.23641451     0.30000
C3746       C  0.99863393  0.48355299  0.25135423    -0.36400
C3747       C  0.98823451  0.49171307  0.26821948     0.16000
C3748       C  0.98597228  0.51278352  0.27020690     0.21800
C3749       C  0.99408810  0.52736879  0.25489202    -0.34500
C3750       C  0.00450801  0.51920409  0.23803401     0.15900
O3751       O  0.01742359  0.49395929  0.22200305    -0.26500
C3752       C  0.02205583  0.51258930  0.21397519     0.05700
C3753       C  0.01434324  0.52886672  0.22315195    -0.31400
O3754       O  0.97562551  0.51694484  0.28688469    -0.23200
C3755       C  0.97117394  0.49828040  0.29580922    -0.03200
C3756       C  0.97866710  0.48203085  0.28474415    -0.17600
H3757       H  0.00036481  0.46698768  0.25049902     0.20400
H3758       H  0.99245498  0.54394971  0.25642751     0.18700
H3759       H  0.01604104  0.54542665  0.22155681     0.18700
H3760       H  0.97711659  0.46545959  0.28737608     0.14500
C3761       C  0.93740067  0.64822722  0.29052652     0.30000
C3762       C  0.93683762  0.62827853  0.27374747    -0.36400
C3763       C  0.93758693  0.61158213  0.30039526     0.16000
C3764       C  0.93853782  0.61442463  0.34088829     0.21800
C3765       C  0.93931138  0.63440696  0.35765680    -0.34500
C3766       C  0.93881514  0.65113050  0.33085331     0.15900
O3767       O  0.93649502  0.66589076  0.27104752    -0.26500
C3768       C  0.93755938  0.68038983  0.29894922     0.05700
C3769       C  0.93909170  0.67219048  0.33688951    -0.31400
O3770       O  0.93820481  0.59670874  0.36051412    -0.23200
C3771       C  0.93731063  0.58232574  0.33225233    -0.03200
C3772       C  0.93694900  0.59061112  0.29414950    -0.17600
H3773       H  0.93572583  0.62596450  0.24213560     0.20400
H3774       H  0.94006208  0.63673221  0.38938934     0.18700
H3775       H  0.93988243  0.68047207  0.36473037     0.18700
H3776       H  0.93573008  0.58248573  0.26631741     0.14500
C3777       C  0.93594581  0.51519757  0.58331516     0.30000
C3778       C  0.93387965  0.52598867  0.61888638    -0.36400
C3779       C  0.93372326  0.51386454  0.65353172     0.16000
C3780       C  0.93556971  0.49263044  0.65310090     0.21800
C3781       C  0.93772162  0.48187603  0.61756547    -0.34500
C3782       C  0.93779255  0.49396518  0.58287536     0.15900
O3783       O  0.93592395  0.52330833  0.54741183    -0.26500
C3784       C  0.93779980  0.50712362  0.52354090     0.05700
C3785       C  0.93904844  0.48840992  0.54396479    -0.31400
O3786       O  0.93520037  0.48438182  0.68888357    -0.23200
C3787       C  0.93303312  0.50047510  0.71263652    -0.03200
C3788       C  0.93203829  0.51927669  0.69229065    -0.17600
H3789       H  0.93235322  0.54262228  0.61942307     0.20400
H3790       H  0.93913490  0.46521556  0.61700079     0.18700
H3791       H  0.94024615  0.47295233  0.53187314     0.18700
H3792       H  0.93066060  0.53469160  0.70438790     0.14500
C3793       C  0.93620650  0.51712544  0.08360004     0.30000
C3794       C  0.93491913  0.52771437  0.11971918    -0.36400
C3795       C  0.93320244  0.51518826  0.15332163     0.16000
C3796       C  0.93283953  0.49373434  0.15146656     0.21800
C3797       C  0.93408914  0.48315211  0.11534408    -0.34500
C3798       C  0.93581050  0.49567350  0.08177417     0.15900
O3799       O  0.93734966  0.52575507  0.04833212    -0.26500
C3800       C  0.93773897  0.50962523  0.02363826     0.05700
C3801       C  0.93688520  0.49050096  0.04279746    -0.31400
O3802       O  0.93191699  0.48507197  0.18675779    -0.23200
C3803       C  0.93162756  0.50115833  0.21157000    -0.03200
C3804       C  0.93229880  0.52031808  0.19241506    -0.17600
H3805       H  0.93523890  0.54452498  0.12148621     0.20400
H3806       H  0.93383951  0.46633601  0.11359778     0.18700
H3807       H  0.93641027  0.47514576  0.02970677     0.18700
H3808       H  0.93286538  0.53565252  0.20554616     0.14500
C3809       C  0.93686095  0.40142800  0.44851714     0.30000
C3810       C  0.93674473  0.38909440  0.48292536    -0.36400
C3811       C  0.93692436  0.36749958  0.47693434     0.16000
C3812       C  0.93694892  0.35854524  0.43967736     0.21800
C3813       C  0.93727287  0.37088802  0.40522626    -0.34500
C3814       C  0.93735328  0.39251958  0.41124995     0.15900
O3815       O  0.93669636  0.42197247  0.44719713    -0.26500
C3816       C  0.93730898  0.42627530  0.40859402     0.05700
C3817       C  0.93782522  0.40857871  0.38485955    -0.31400
O3818       O  0.93695791  0.33798745  0.44117688    -0.23200
C3819       C  0.93715678  0.33382161  0.47991313    -0.03200
C3820       C  0.93720035  0.35155256  0.50349459    -0.17600
H3821       H  0.93660386  0.39586150  0.51233697     0.20400
H3822       H  0.93753379  0.36411472  0.37582594     0.18700
H3823       H  0.93829056  0.40772700  0.35278436     0.18700
H3824       H  0.93737958  0.35249512  0.53559109     0.14500
C3825       C  0.88218118  0.52170497  0.43151922     0.30000
C3826       C  0.87229715  0.53433325  0.43832473    -0.36400
C3827       C  0.86180388  0.52395975  0.44783002     0.16000
C3828       C  0.86100400  0.50257036  0.45042023     0.21800
C3829       C  0.87095386  0.48985031  0.44345146    -0.34500
C3830       C  0.88153381  0.50028602  0.43389963     0.15900
O3831       O  0.89290764  0.52838280  0.42361090    -0.26500
C3832       C  0.89933951  0.51112278  0.42065820     0.05700
C3833       C  0.89273655  0.49305286  0.42661521    -0.31400
O3834       O  0.85017473  0.49630353  0.45935966    -0.23200
C3835       C  0.84403945  0.51397168  0.46253469    -0.03200
C3836       C  0.85085867  0.53161448  0.45569067    -0.17600
H3837       H  0.87278509  0.55113907  0.43661094     0.20400
H3838       H  0.87049007  0.47305744  0.44548347     0.18700
H3839       H  0.89580853  0.47709205  0.42692061     0.18700
H3840       H  0.84808813  0.54775219  0.45577475     0.14500
C3841       C  0.50970302  0.24225030  0.88781788     0.30000
C3842       C  0.49988893  0.23197102  0.87125968    -0.36400
C3843       C  0.49099564  0.24477754  0.85519272     0.16000
C3844       C  0.49173003  0.26620789  0.85551398     0.21800
C3845       C  0.50149766  0.27646635  0.87228812    -0.34500
C3846       C  0.51037748  0.26368437  0.88833290     0.15900
O3847       O  0.51927407  0.23334645  0.90259086    -0.26500
C3848       C  0.52616781  0.24925200  0.91301177     0.05700
C3849       C  0.52104808  0.26853520  0.90490584    -0.31400
O3850       O  0.48231852  0.27519753  0.83986497    -0.23200
C3851       C  0.47541230  0.25939527  0.82909841    -0.03200
C3852       C  0.48037014  0.24003736  0.83802523    -0.17600
H3853       H  0.49928290  0.21516166  0.87064705     0.20400
H3854       H  0.50214044  0.29327200  0.87268298     0.18700
H3855       H  0.52489732  0.28383297  0.90863171     0.18700
H3856       H  0.47648481  0.22478100  0.83410262     0.14500
C3857       C  0.48919176  0.24765892  0.35813568     0.30000
C3858       C  0.49718201  0.23293068  0.37348129    -0.36400
C3859       C  0.50753866  0.24093849  0.39070896     0.16000
C3860       C  0.50988662  0.26198498  0.39270195     0.21800
C3861       C  0.50189380  0.27670407  0.37740009    -0.34500
C3862       C  0.49154949  0.26870005  0.36014768     0.15900
O3863       O  0.47877044  0.24368580  0.34210347    -0.26500
C3864       C  0.47438583  0.26243375  0.33363367     0.05700
C3865       C  0.48199322  0.27856192  0.34414328    -0.31400
O3866       O  0.52037504  0.26598116  0.40816788    -0.23200
C3867       C  0.52483580  0.24725362  0.41628749     0.22400
C3868       C  0.51718832  0.23109779  0.40618850    -0.17600
H3869       H  0.49545141  0.21638163  0.37205221     0.20400
H3870       H  0.50365473  0.29324778  0.37862279     0.18700
H3871       H  0.48045073  0.29516116  0.34205384     0.18700
H3872       H  0.51879905  0.21450588  0.40785653     0.14500
C3873       C  0.56207878  0.24286424  0.76029524     0.30000
C3874       C  0.56088131  0.23208448  0.72438985    -0.36400
C3875       C  0.56022930  0.24441774  0.69016548     0.16000
C3876       C  0.56062705  0.26588667  0.69127492     0.21800
C3877       C  0.56172830  0.27668404  0.72725400    -0.34500
C3878       C  0.56252234  0.26432704  0.76147171     0.15900
O3879       O  0.56277904  0.23440694  0.79579241    -0.26500
C3880       C  0.56378978  0.25061252  0.82006688     0.05700
C3881       C  0.56369396  0.26967201  0.80041059    -0.31400
O3882       O  0.56052592  0.27424693  0.65557706    -0.23200
C3883       C  0.56006918  0.25793948  0.63132199    -0.03200
C3884       C  0.55980257  0.23895713  0.65116827    -0.17600
H3885       H  0.56064638  0.21525440  0.72319753     0.20400
H3886       H  0.56216820  0.29350210  0.72839237     0.18700
H3887       H  0.56399451  0.28513984  0.81306558     0.18700
H3888       H  0.55985570  0.22344587  0.63866281     0.14500
C3889       C  0.56011903  0.24434195  0.18809276     0.30000
C3890       C  0.56151171  0.23055821  0.22011815    -0.36400
C3891       C  0.56218837  0.23972652  0.25785922     0.16000
C3892       C  0.56155115  0.26095931  0.26380957     0.21800
C3893       C  0.56013846  0.27471011  0.23183413    -0.34500
C3894       C  0.55939920  0.26555075  0.19418286     0.15900
O3895       O  0.55985430  0.23935721  0.15004929    -0.26500
C3896       C  0.55887105  0.25765108  0.13169433     0.05700
C3897       C  0.55846432  0.27441504  0.15776018    -0.31400
O3898       O  0.56194423  0.26607341  0.30172909    -0.23200
C3899       C  0.56285125  0.24785671  0.32032031    -0.03200
C3900       C  0.56309555  0.23096299  0.29447201    -0.17600
H3901       H  0.56207081  0.21388583  0.21592736     0.20400
H3902       H  0.55961728  0.29138700  0.23600514     0.18700
H3903       H  0.55819222  0.29086184  0.15074205     0.18700
H3904       H  0.56338377  0.21454858  0.30174581     0.14500
C3905       C  0.76248861  0.24637368  0.76632443     0.30000
C3906       C  0.75459373  0.23170232  0.75033130    -0.36400
C3907       C  0.74474064  0.23979398  0.72996005     0.16000
C3908       C  0.74278617  0.26086766  0.72545827     0.21800
C3909       C  0.75067381  0.27552688  0.74146160    -0.34500
C3910       C  0.76046793  0.26744016  0.76210027     0.15900
O3911       O  0.77250721  0.24229898  0.78514740    -0.26500
C3912       C  0.77692506  0.26102585  0.79351394     0.05700
C3913       C  0.76974066  0.27720770  0.77998216    -0.31400
O3914       O  0.73267722  0.26499601  0.70729124    -0.23200
C3915       C  0.72806027  0.24631436  0.69992434    -0.03200
C3916       C  0.73523590  0.23007867  0.71331620    -0.17600
H3917       H  0.75600625  0.21512631  0.75366980     0.20400
H3918       H  0.74920630  0.29210436  0.73842981     0.18700
H3919       H  0.77145578  0.29377172  0.78110364     0.18700
H3920       H  0.73336008  0.21355797  0.71306594     0.14500
C3921       C  0.63645949  0.27053009  0.57141047     0.30000
C3922       C  0.62660299  0.28281069  0.56227661    -0.36400
C3923       C  0.61647742  0.27210349  0.55008014     0.16000
C3924       C  0.61592347  0.25070783  0.54722633     0.21800
C3925       C  0.62584599  0.23832113  0.55664344    -0.34500
C3926       C  0.63608555  0.24910130  0.56882053     0.15900
O3927       O  0.64697815  0.27758055  0.58123585    -0.26500
C3928       C  0.65355569  0.26054319  0.58532838     0.05700
C3929       C  0.64723244  0.24227171  0.57821805    -0.31400
O3930       O  0.60530858  0.24413648  0.53607887    -0.23200
C3931       C  0.59908789  0.26166245  0.53174348    -0.03200
C3932       C  0.60566287  0.27943917  0.53992231    -0.17600
H3933       H  0.62685490  0.29962639  0.56412515     0.20400
H3934       H  0.62562343  0.22152407  0.55444717     0.18700
H3935       H  0.65051582  0.22644307  0.57795223     0.18700
H3936       H  0.60274768  0.29550152  0.53978902     0.14500
C3937       C  0.73995096  0.26226982  0.23028991     0.30000
C3938       C  0.74769512  0.27688313  0.24731396    -0.36400
C3939       C  0.75789223  0.26877259  0.26565962     0.16000
C3940       C  0.76033664  0.24774319  0.26703908     0.21800
C3941       C  0.75261889  0.23315508  0.24986549    -0.34500
C3942       C  0.74242223  0.24124975  0.23158219     0.15900
O3943       O  0.72962455  0.26629810  0.21348615    -0.26500
C3944       C  0.72542342  0.24761175  0.20365035     0.05700
C3945       C  0.73306283  0.23147300  0.21412192    -0.31400
O3946       O  0.77055981  0.24362675  0.28448102    -0.23200
C3947       C  0.77474981  0.26225774  0.29467837    -0.03200
C3948       C  0.76719770  0.27846767  0.28366392    -0.17600
H3949       H  0.74585386  0.29341597  0.24657965     0.20400
H3950       H  0.75442893  0.21661605  0.25075887     0.18700
H3951       H  0.73162559  0.21488699  0.21127203     0.18700
H3952       H  0.76863515  0.29504361  0.28673755     0.14500
C3953       C  0.69487534  0.24437829  0.92426209     0.30000
C3954       C  0.69320565  0.23063144  0.89250878    -0.36400
C3955       C  0.69234132  0.23974767  0.85477010     0.16000
C3956       C  0.69321189  0.26092037  0.84839795     0.21800
C3957       C  0.69501176  0.27469447  0.88012249    -0.34500
C3958       C  0.69577821  0.26556621  0.91797502     0.15900
O3959       O  0.69483108  0.23937824  0.96231742    -0.26500
C3960       C  0.69572940  0.25760478  0.98071481     0.05700
C3961       C  0.69648010  0.27439863  0.95453364    -0.31400
O3962       O  0.69235702  0.26592034  0.81043360    -0.23200
C3963       C  0.69086398  0.24767589  0.79239042    -0.03200
C3964       C  0.69074083  0.23091287  0.81858779    -0.17600
H3965       H  0.69234611  0.21401636  0.89700623     0.20400
H3966       H  0.69556872  0.29136095  0.87571117     0.18700
H3967       H  0.69664979  0.29084064  0.96151032     0.18700
H3968       H  0.69004719  0.21450153  0.81176021     0.14500
C3969       C  0.68824091  0.26303814  0.34869146     0.30000
C3970       C  0.68887364  0.27688049  0.38084282    -0.36400
C3971       C  0.69052354  0.26776875  0.41843153     0.16000
C3972       C  0.69150339  0.24654225  0.42411058     0.21800
C3973       C  0.69100560  0.23276546  0.39198448    -0.34500
C3974       C  0.68927456  0.24184319  0.35454726     0.15900
O3975       O  0.68696623  0.26802290  0.31077185    -0.26500
C3976       C  0.68712450  0.24970326  0.29229927     0.05700
C3977       C  0.68850543  0.23296018  0.31818874    -0.31400
O3978       O  0.69227143  0.24132046  0.46197627    -0.23200
C3979       C  0.69181988  0.25946052  0.48086734    -0.03200
C3980       C  0.69083487  0.27643500  0.45520911    -0.17600
H3981       H  0.68802694  0.29354151  0.37691732     0.20400
H3982       H  0.69172476  0.21608891  0.39594923     0.18700
H3983       H  0.68934363  0.21660381  0.31102195     0.18700
H3984       H  0.68987305  0.29272648  0.46272345     0.14500
C3985       C  0.63734182  0.25124192  0.06321741     0.30000
C3986       C  0.62735776  0.23884574  0.05472259    -0.36400
C3987       C  0.61673516  0.24963517  0.04683630     0.16000
C3988       C  0.61603721  0.27107828  0.04766412     0.21800
C3989       C  0.62594618  0.28337934  0.05596776    -0.34500
C3990       C  0.63649323  0.27266334  0.06353432     0.15900
O3991       O  0.64825003  0.24468840  0.07078640    -0.26500
C3992       C  0.65439336  0.26224201  0.07579640     0.05700
C3993       C  0.64747223  0.28002238  0.07164494    -0.31400
O3994       O  0.60529565  0.27805431  0.04049322    -0.23200
C3995       C  0.59891103  0.26095286  0.03462264    -0.03200
C3996       C  0.60556454  0.24273149  0.03803465    -0.17600
H3997       H  0.62783850  0.22202488  0.05418236     0.20400
H3998       H  0.62546379  0.30020638  0.05648203     0.18700
H3999       H  0.65019627  0.29613439  0.07377886     0.18700
H4000       H  0.60255014  0.22680752  0.03544795     0.14500
C4001       C  0.50929979  0.01608680  0.72323895     0.30000
C4002       C  0.50046799  0.02490082  0.74715104    -0.36400
C4003       C  0.49191657  0.01113435  0.76195162     0.16000
C4004       C  0.49193949  0.99012345  0.75355827     0.21800
C4005       C  0.50082443  0.98125917  0.72968489    -0.34500
C4006       C  0.50943700  0.99505554  0.71498249     0.15900
O4007       O  0.51855788  0.02592865  0.70860532    -0.26500
C4008       C  0.52476952  0.01107994  0.69062927     0.05700
C4009       C  0.51946640  0.99153484  0.69341019    -0.31400
O4010       O  0.48262748  0.98044062  0.76852165    -0.23200
C4011       C  0.47661499  0.99545349  0.78694738    -0.03200
C4012       C  0.48206810  0.01482185  0.78405541    -0.17600
H4013       H  0.50032240  0.04135512  0.75398141     0.20400
H4014       H  0.50100029  0.96479021  0.72299573     0.18700
H4015       H  0.52293325  0.97670183  0.68355404     0.18700
H4016       H  0.47881220  0.02971854  0.79436366     0.14500
C4017       C  0.55478703  0.11165224  0.56197023     0.30000
C4018       C  0.54796079  0.12857200  0.54920764    -0.36400
C4019       C  0.55423872  0.14668699  0.53978659     0.16000
C4020       C  0.56638341  0.14825350  0.54326196     0.21800
C4021       C  0.57324793  0.13114142  0.55515986    -0.34500
C4022       C  0.56697872  0.11286040  0.56389602     0.15900
O4023       O  0.55071235  0.09346610  0.57376393    -0.26500
C4024       C  0.56043758  0.08276131  0.58242107     0.05700
C4025       C  0.57082053  0.09390913  0.57657803    -0.31400
O4026       O  0.57035477  0.16684412  0.53318385    -0.23200
C4027       C  0.56061412  0.17709910  0.52268653    -0.03200
C4028       C  0.55036603  0.16531684  0.52595970    -0.17600
H4029       H  0.53842008  0.12770480  0.54694191     0.20400
H4030       H  0.58278679  0.13201238  0.55745169     0.18700
H4031       H  0.57981781  0.08902224  0.58250543     0.18700
H4032       H  0.54138712  0.16980929  0.51870561     0.14500
C4033       C  0.49701300  0.99361454  0.26686175     0.30000
C4034       C  0.50628306  0.98410582  0.24597297    -0.36400
C4035       C  0.51476372  0.99752404  0.22967378     0.16000
C4036       C  0.51423552  0.01887038  0.23376273     0.21800
C4037       C  0.50492313  0.02842308  0.25462739    -0.34500
C4038       C  0.49640944  0.01495791  0.27097375     0.15900
O4039       O  0.48780693  0.98403400  0.28244248    -0.26500
C4040       C  0.48118690  0.99936056  0.29703309     0.05700
C4041       C  0.48614017  0.01897925  0.29091080    -0.31400
O4042       O  0.52345395  0.02829473  0.21767676    -0.23200
C4043       C  0.52990867  0.01275822  0.20288236    -0.03200
C4044       C  0.52488096  0.99329046  0.20935774    -0.17600
H4045       H  0.50680507  0.96738771  0.24245271     0.20400
H4046       H  0.50436526  0.04515031  0.25793331     0.18700
H4047       H  0.48233271  0.03403219  0.29765595     0.18700
H4048       H  0.52849859  0.97815272  0.20213631     0.14500
C4049       C  0.55950606  0.99668197  0.91399227     0.30000
C4050       C  0.56000396  0.98586385  0.87784907    -0.36400
C4051       C  0.56093881  0.99812887  0.84352034     0.16000
C4052       C  0.56125808  0.01958847  0.84464376     0.21800
C4053       C  0.56070579  0.03043163  0.88083590    -0.34500
C4054       C  0.55982280  0.01814275  0.91525744     0.15900
O4055       O  0.55926890  0.98822252  0.94964252    -0.26500
C4056       C  0.55937204  0.00440811  0.97428020     0.05700
C4057       C  0.55966988  0.02348081  0.95453423    -0.31400
O4058       O  0.56193074  0.02793211  0.80888393    -0.23200
C4059       C  0.56213124  0.01160812  0.78453594    -0.03200
C4060       C  0.56154694  0.99264624  0.80448184    -0.17600
H4061       H  0.55983228  0.96903206  0.87663482     0.20400
H4062       H  0.56103100  0.04725467  0.88207111     0.18700
H4063       H  0.56029742  0.03890581  0.96724369     0.18700
H4064       H  0.56121140  0.97714795  0.79196771     0.14500
C4065       C  0.56305639  0.01509644  0.41637330     0.30000
C4066       C  0.56563355  0.02860634  0.38481625    -0.36400
C4067       C  0.56729379  0.01919927  0.34767161     0.16000
C4068       C  0.56637996  0.99800535  0.34172388     0.21800
C4069       C  0.56373995  0.98451264  0.37323826    -0.34500
C4070       C  0.56211537  0.99390602  0.41039731     0.15900
O4071       O  0.56200682  0.02030425  0.45411979    -0.26500
C4072       C  0.56034837  0.00218736  0.47248074     0.05700
C4073       C  0.56019993  0.98529637  0.44663603    -0.31400
O4074       O  0.56752145  0.99275897  0.30402575    -0.23200
C4075       C  0.56923286  0.01084333  0.28561297    -0.03200
C4076       C  0.56927609  0.02776941  0.31143399    -0.17600
H4077       H  0.56638286  0.04525664  0.38896500     0.20400
H4078       H  0.56298606  0.96786403  0.36908715     0.18700
H4079       H  0.55959520  0.96890229  0.45386722     0.18700
H4080       H  0.56978209  0.04416800  0.30414232     0.14500
C4081       C  0.56253119  0.14470060  0.02288518     0.30000
C4082       C  0.56408422  0.12364375  0.01342806    -0.36400
C4083       C  0.56326938  0.10967679  0.04525135     0.16000
C4084       C  0.56077322  0.11599379  0.08353125     0.21800
C4085       C  0.55933346  0.13708806  0.09308448    -0.34500
C4086       C  0.56048055  0.15111050  0.06142053     0.15900
O4087       O  0.56299652  0.16034819  0.99773040    -0.26500
C4088       C  0.56150397  0.17698589  0.02053632     0.05700
C4089       C  0.55993385  0.17229572  0.06048179    -0.31400
O4090       O  0.56021993  0.10028060  0.10854731    -0.23200
C4091       C  0.56259166  0.08375558  0.08616413    -0.03200
C4092       C  0.56461438  0.08861366  0.04651746    -0.17600
H4093       H  0.56591635  0.11854562  0.98342469     0.20400
H4094       H  0.55757650  0.14220021  0.12313400     0.18700
H4095       H  0.55838216  0.18289134  0.08490745     0.18700
H4096       H  0.56662288  0.07815499  0.02225336     0.14500
C4097       C  0.74008355  0.99794895  0.88092502     0.30000
C4098       C  0.74811832  0.98309991  0.86628813    -0.36400
C4099       C  0.75822888  0.99094504  0.84706762     0.16000
C4100       C  0.76033537  0.01196852  0.84265449     0.21800
C4101       C  0.75227251  0.02682777  0.85718318    -0.34500
C4102       C  0.74215786  0.01897788  0.87641286     0.15900
O4103       O  0.72988469  0.99403752  0.89866494    -0.26500
C4104       C  0.72533261  0.01280774  0.90580108     0.05700
C4105       C  0.73263248  0.02891155  0.89266634    -0.31400
O4106       O  0.77068201  0.01584258  0.82579247    -0.23200
C4107       C  0.77527473  0.99704555  0.81902170    -0.03200
C4108       C  0.76784802  0.98098883  0.83154989    -0.17600
H4109       H  0.74660524  0.96656137  0.86973862     0.20400
H4110       H  0.75382885  0.04336933  0.85402953     0.18700
H4111       H  0.73091477  0.04548685  0.89335783     0.18700
H4112       H  0.76960625  0.96442275  0.83147030     0.14500
C4113       C  0.69166851  0.14392268  0.08775860     0.30000
C4114       C  0.69230850  0.12262829  0.09689238    -0.36400
C4115       C  0.69219286  0.10904983  0.06436833     0.16000
C4116       C  0.69181151  0.11602584  0.02556661     0.21800
C4117       C  0.69106515  0.13730385  0.01647849    -0.34500
C4118       C  0.69085326  0.15084747  0.04900883     0.15900
O4119       O  0.69170678  0.15931577  0.11347371    -0.26500
C4120       C  0.69068561  0.17627044  0.09097422     0.05700
C4121       C  0.69003609  0.17199817  0.05060679    -0.31400
O4122       O  0.69191387  0.10067808  0.99973885    -0.23200
C4123       C  0.69212221  0.08364567  0.02223102    -0.03200
C4124       C  0.69227722  0.08784264  0.06272939    -0.17600
H4125       H  0.69275964  0.11705183  0.12721590     0.20400
H4126       H  0.69056589  0.14288290  0.98617006     0.18700
H4127       H  0.68941469  0.18289203  0.02612254     0.18700
H4128       H  0.69250572  0.07689229  0.08720245     0.14500
C4129       C  0.61648060  0.98848387  0.05234709     0.30000
C4130       C  0.62612247  0.97669328  0.03916520    -0.36400
C4131       C  0.63676906  0.98747240  0.03414189     0.16000
C4132       C  0.63798933  0.00843987  0.04188302     0.21800
C4133       C  0.62826884  0.02033655  0.05511820    -0.34500
C4134       C  0.61751387  0.00951680  0.05988263     0.15900
O4135       O  0.60569631  0.98142479  0.05829406    -0.26500
C4136       C  0.59961484  0.99808549  0.06973876     0.05700
C4137       C  0.60650455  0.01607434  0.07135329    -0.31400
O4138       O  0.64898903  0.01499418  0.03636924    -0.23200
C4139       C  0.65478471  0.99794947  0.02465790    -0.03200
C4140       C  0.64756889  0.98046850  0.02272579    -0.17600
H4141       H  0.62537022  0.96019748  0.03319969     0.20400
H4142       H  0.62903673  0.03679984  0.06135124     0.18700
H4143       H  0.60376104  0.03167474  0.07924158     0.18700
H4144       H  0.65003996  0.96465003  0.01539679     0.14500
C4145       C  0.76300791  0.01091298  0.35129088     0.30000
C4146       C  0.75508672  0.02567704  0.36681000    -0.36400
C4147       C  0.74520540  0.01774437  0.38713153     0.16000
C4148       C  0.74313394  0.99671633  0.39163371     0.21800
C4149       C  0.75110863  0.98191888  0.37628745    -0.34500
C4150       C  0.76104664  0.98986614  0.35607194     0.15900
O4151       O  0.77303827  0.01494487  0.33258499    -0.26500
C4152       C  0.77761114  0.99623657  0.32497737     0.05700
C4153       C  0.77049715  0.98005587  0.33899315    -0.31400
O4154       O  0.73291443  0.99282745  0.40944294    -0.23200
C4155       C  0.72843930  0.01164999  0.41685269    -0.03200
C4156       C  0.73578467  0.02767851  0.40375763    -0.17600
H4157       H  0.75652421  0.04223220  0.36326723     0.20400
H4158       H  0.74962414  0.96536525  0.37958880     0.18700
H4159       H  0.77232395  0.96351692  0.33848245     0.18700
H4160       H  0.73404467  0.04425224  0.40399284     0.14500
C4161       C  0.68521289  0.01839766  0.76236120     0.30000
C4162       C  0.68573783  0.02951146  0.72641949    -0.36400
C4163       C  0.68797968  0.01767258  0.69226104     0.16000
C4164       C  0.68949696  0.99636560  0.69348397     0.21800
C4165       C  0.68887363  0.98525043  0.72933424    -0.34500
C4166       C  0.68665175  0.99707178  0.76346275     0.15900
O4167       O  0.68422786  0.02651810  0.79810663    -0.26500
C4168       C  0.68493970  0.01019311  0.82244816     0.05700
C4169       C  0.68634218  0.99141237  0.80249656    -0.31400
O4170       O  0.69119827  0.98830221  0.65803191    -0.23200
C4171       C  0.69082414  0.00461092  0.63363604    -0.03200
C4172       C  0.68889142  0.02336339  0.65329302    -0.17600
H4173       H  0.68469409  0.04625154  0.72528749     0.20400
H4174       H  0.69015405  0.96856354  0.73055805     0.18700
H4175       H  0.68787044  0.97611132  0.81502231     0.18700
H4176       H  0.68778303  0.03873279  0.64057608     0.14500
C4177       C  0.69317365  0.01736441  0.18961917     0.30000
C4178       C  0.69447507  0.03070503  0.22218888    -0.36400
C4179       C  0.69268270  0.02165780  0.25966960     0.16000
C4180       C  0.68990251  0.00090592  0.26500413     0.21800
C4181       C  0.68858570  0.98758235  0.23248024    -0.34500
C4182       C  0.69029949  0.99665574  0.19503324     0.15900
O4183       O  0.69414272  0.02252238  0.15171641    -0.26500
C4184       C  0.69178446  0.00484508  0.13282737     0.05700
C4185       C  0.68938160  0.98830518  0.15832347    -0.31400
O4186       O  0.68891813  0.99569912  0.30281574    -0.23200
C4187       C  0.69102980  0.01342224  0.32184626    -0.03200
C4188       C  0.69338615  0.03004789  0.29647552    -0.17600
H4189       H  0.69667237  0.04699578  0.21859896     0.20400
H4190       H  0.68635905  0.97130215  0.23607352     0.18700
H4191       H  0.68707253  0.97244524  0.15077372     0.18700
H4192       H  0.69561788  0.04592356  0.30414561     0.14500
C4193       C  0.69815042  0.11315335  0.54249153     0.30000
C4194       C  0.70517453  0.13003786  0.55416602    -0.36400
C4195       C  0.69903888  0.14778830  0.56679105     0.16000
C4196       C  0.68683689  0.14905194  0.56690072     0.21800
C4197       C  0.67981637  0.13204581  0.55578890    -0.34500
C4198       C  0.68595142  0.11408844  0.54419229     0.15900
O4199       O  0.70201944  0.09512424  0.52921464    -0.26500
C4200       C  0.69218558  0.08423052  0.52325629     0.05700
C4201       C  0.68191469  0.09514084  0.53228049    -0.31400
O4202       O  0.68296432  0.16719143  0.57972136    -0.23200
C4203       C  0.69281185  0.17748419  0.58853396    -0.03200
C4204       C  0.70307642  0.16618307  0.58135537    -0.17600
H4205       H  0.71474367  0.12932094  0.55373789     0.20400
H4206       H  0.67024923  0.13270029  0.55654466     0.18700
H4207       H  0.67282957  0.09008204  0.52914642     0.18700
H4208       H  0.71215566  0.17082934  0.58643556     0.14500
C4209       C  0.61545463  0.01038480  0.56033451     0.30000
C4210       C  0.62523801  0.02283357  0.54950818    -0.36400
C4211       C  0.63586589  0.01209783  0.54133767     0.16000
C4212       C  0.63671265  0.99070278  0.54397116     0.21800
C4213       C  0.62703843  0.97840428  0.55469710    -0.34500
C4214       C  0.61652374  0.98902546  0.56263007     0.15900
O4215       O  0.60451323  0.01672941  0.56800964    -0.26500
C4216       C  0.59863021  0.99907871  0.57519721     0.05700
C4217       C  0.60572350  0.98149032  0.57231773    -0.31400
O4218       O  0.64741126  0.98373692  0.53652348    -0.23200
C4219       C  0.65365945  0.00075818  0.52873701    -0.03200
C4220       C  0.64694344  0.01897320  0.53105714    -0.17600
H4221       H  0.62460441  0.03961064  0.54743945     0.20400
H4222       H  0.62767261  0.96162185  0.55672084     0.18700
H4223       H  0.60317769  0.96533737  0.57565173     0.18700
H4224       H  0.64989305  0.03488184  0.52732617     0.14500
C4225       C  0.51015657  0.76236234  0.64576490     0.30000
C4226       C  0.50221604  0.77709010  0.63022187    -0.36400
C4227       C  0.49209081  0.76909729  0.61154551     0.16000
C4228       C  0.48985609  0.74805332  0.60846504     0.21800
C4229       C  0.49782207  0.73329753  0.62396166    -0.34500
C4230       C  0.50797276  0.74130135  0.64262983     0.15900
O4231       O  0.52039683  0.76641021  0.66297913    -0.26500
C4232       C  0.52486491  0.74770150  0.67119912     0.05700
C4233       C  0.51747670  0.73149846  0.65926262    -0.31400
O4234       O  0.47953961  0.74411558  0.59152559    -0.23200
C4235       C  0.47513184  0.76290382  0.58341650    -0.03200
C4236       C  0.48261666  0.77898995  0.59513792    -0.17600
H4237       H  0.50382949  0.79364972  0.63248118     0.20400
H4238       H  0.49619486  0.71673955  0.62178889     0.18700
H4239       H  0.51914288  0.71492100  0.66082291     0.18700
H4240       H  0.48100846  0.79559065  0.59375155     0.14500
C4241       C  0.55191938  0.86401691  0.70093153     0.30000
C4242       C  0.54958106  0.88423637  0.71454012    -0.36400
C4243       C  0.55329267  0.90044631  0.68965709     0.16000
C4244       C  0.55892641  0.89691643  0.65390101     0.21800
C4245       C  0.56092345  0.87669854  0.63971825    -0.34500
C4246       C  0.55717881  0.86046882  0.66453672     0.15900
O4247       O  0.55070266  0.84683781  0.72177991    -0.26500
C4248       C  0.55499385  0.83203115  0.69823060     0.05700
C4249       C  0.55904050  0.83951862  0.66196432    -0.31400
O4250       O  0.56257506  0.91423294  0.63703794    -0.23200
C4251       C  0.55916254  0.92904815  0.66209489    -0.03200
C4252       C  0.55322403  0.92146292  0.69523249    -0.17600
H4253       H  0.54571844  0.88712005  0.74344235     0.20400
H4254       H  0.56558691  0.87383758  0.61217228     0.18700
H4255       H  0.56376985  0.83111805  0.63906925     0.18700
H4256       H  0.54976185  0.93009356  0.72026645     0.14500
C4257       C  0.49343191  0.76669971  0.11278380     0.30000
C4258       C  0.50309128  0.77637394  0.13144739    -0.36400
C4259       C  0.51195303  0.76309814  0.14617325     0.16000
C4260       C  0.51141634  0.74174284  0.14248342     0.21800
C4261       C  0.50176564  0.73204218  0.12368943    -0.34500
C4262       C  0.49286043  0.74533726  0.10915155     0.15900
O4263       O  0.48391630  0.77611930  0.09870067    -0.26500
C4264       C  0.47711504  0.76064105  0.08568324     0.05700
C4265       C  0.48227173  0.74111309  0.09133593    -0.31400
O4266       O  0.52087259  0.73239558  0.15722816    -0.23200
C4267       C  0.52754569  0.74794366  0.17085719    -0.03200
C4268       C  0.52239691  0.76740331  0.16479250    -0.17600
H4269       H  0.50360924  0.79310944  0.13459111     0.20400
H4270       H  0.50122008  0.71529668  0.12072796     0.18700
H4271       H  0.47851590  0.72598392  0.08498633     0.18700
H4272       H  0.52606711  0.78255474  0.17146707     0.14500
C4273       C  0.56394150  0.86289136  0.21209760     0.30000
C4274       C  0.56537333  0.88302962  0.22757954    -0.36400
C4275       C  0.56335308  0.89951608  0.20107612     0.16000
C4276       C  0.56034689  0.89628613  0.16184758     0.21800
C4277       C  0.55865985  0.87615015  0.14658900    -0.34500
C4278       C  0.56051225  0.85966713  0.17326823     0.15900
O4279       O  0.56582240  0.84533821  0.23130206    -0.26500
C4280       C  0.56341693  0.83060554  0.20475110     0.05700
C4281       C  0.55998429  0.83856950  0.16805088    -0.31400
O4282       O  0.55996231  0.91375262  0.14137721    -0.23200
C4283       C  0.56249866  0.92842870  0.16790051    -0.03200
C4284       C  0.56459773  0.92054548  0.20573845    -0.17600
H4285       H  0.56812404  0.88563288  0.25795305     0.20400
H4286       H  0.55635222  0.87352270  0.11580869     0.18700
H4287       H  0.55774792  0.83009822  0.14133247     0.18700
H4288       H  0.56739835  0.92890676  0.23197847     0.14500
C4289       C  0.56550975  0.76317911  0.95409751     0.30000
C4290       C  0.56792345  0.77371627  0.98967234    -0.36400
C4291       C  0.56745297  0.76163991  0.02433036     0.16000
C4292       C  0.56488233  0.74064152  0.02375053     0.21800
C4293       C  0.56242058  0.73015067  0.98824028    -0.34500
C4294       C  0.56276447  0.74225041  0.95367240     0.15900
O4295       O  0.56543913  0.77141746  0.91832612    -0.26500
C4296       C  0.56248761  0.75564961  0.89473757     0.05700
C4297       C  0.56067785  0.73707888  0.91504654    -0.31400
O4298       O  0.56444271  0.73250290  0.05952474    -0.23200
C4299       C  0.56671090  0.74842992  0.08348959    -0.03200
C4300       C  0.56868264  0.76702763  0.06330170    -0.17600
H4301       H  0.56987788  0.79020402  0.99029380     0.20400
H4302       H  0.56019693  0.71377001  0.98771938     0.18700
H4303       H  0.55838232  0.72199126  0.90305720     0.18700
H4304       H  0.57026418  0.78234030  0.07556088     0.14500
C4305       C  0.56174392  0.76295657  0.45480034     0.30000
C4306       C  0.56303724  0.77408054  0.49035585    -0.36400
C4307       C  0.56397490  0.76209408  0.52500478     0.16000
C4308       C  0.56358645  0.74063009  0.52461284     0.21800
C4309       C  0.56236550  0.72948396  0.48897550    -0.34500
C4310       C  0.56146013  0.74148797  0.45426407     0.15900
O4311       O  0.56114373  0.77108663  0.41899370    -0.26500
C4312       C  0.56048333  0.75468994  0.39499792     0.05700
C4313       C  0.56059269  0.73578693  0.41528936    -0.31400
O4314       O  0.56388609  0.73260628  0.56061165    -0.23200
C4315       C  0.56453802  0.74910039  0.58442805    -0.03200
C4316       C  0.56471974  0.76790328  0.56387600    -0.17600
H4317       H  0.56327665  0.79091950  0.49093179     0.20400
H4318       H  0.56204972  0.71264922  0.48841763     0.18700
H4319       H  0.56059759  0.72021625  0.40306034     0.18700
H4320       H  0.56466681  0.78352277  0.57588229     0.14500
C4321       C  0.74117880  0.74127592  0.97447804     0.30000
C4322       C  0.75044145  0.73209106  0.99622573    -0.36400
C4323       C  0.75926661  0.74565382  0.01008113     0.16000
C4324       C  0.75906343  0.76677945  0.00270261     0.21800
C4325       C  0.74981398  0.77595907  0.98090262    -0.34500
C4326       C  0.74094464  0.76241966  0.96728790     0.15900
O4327       O  0.73166876  0.73171204  0.96085398    -0.26500
C4328       C  0.72522487  0.74689180  0.94459922     0.05700
C4329       C  0.73060623  0.76633848  0.94768209    -0.31400
O4330       O  0.76841521  0.77643459  0.01727581    -0.23200
C4331       C  0.77468097  0.76135186  0.03458943    -0.03200
C4332       C  0.76937639  0.74185903  0.03106921    -0.17600
H4333       H  0.75067379  0.71555034  0.00234683     0.20400
H4334       H  0.74951543  0.79253391  0.97516657     0.18700
H4335       H  0.72708540  0.78132810  0.93887621     0.18700
H4336       H  0.77276814  0.72693981  0.04083904     0.14500
C4337       C  0.68958447  0.86182324  0.90131271     0.30000
C4338       C  0.68727775  0.88171399  0.88552580    -0.36400
C4339       C  0.69143840  0.89863783  0.90784551     0.16000
C4340       C  0.69735557  0.89598441  0.94334785     0.21800
C4341       C  0.69990413  0.87613452  0.95857436    -0.34500
C4342       C  0.69580587  0.85927367  0.93623320     0.15900
O4343       O  0.68588541  0.84396602  0.88674280    -0.26500
C4344       C  0.68984633  0.82980932  0.91250138     0.05700
C4345       C  0.69617854  0.83840021  0.94377117    -0.31400
O4346       O  0.69912568  0.91367289  0.96193227    -0.23200
C4347       C  0.69454107  0.92801129  0.93787122    -0.03200
C4348       C  0.68968310  0.91962112  0.90346477    -0.17600
H4349       H  0.68219986  0.88384485  0.85857165     0.20400
H4350       H  0.70432040  0.87401617  0.98681369     0.18700
H4351       H  0.70018729  0.83048687  0.96879208     0.18700
H4352       H  0.68459436  0.92753785  0.88076979     0.14500
C4353       C  0.63548483  0.76973334  0.80067876     0.30000
C4354       C  0.62611437  0.78173195  0.78559774    -0.36400
C4355       C  0.61506408  0.77189964  0.78353259     0.16000
C4356       C  0.61331090  0.75158460  0.79545027     0.21800
C4357       C  0.62275207  0.73947624  0.81035770    -0.34500
C4358       C  0.63386843  0.74936470  0.81249409     0.15900
O4359       O  0.64643941  0.77615970  0.80578471    -0.26500
C4360       C  0.65208106  0.75979720  0.82108309     0.05700
C4361       C  0.64469216  0.74254952  0.82586967    -0.31400
O4362       O  0.60207268  0.74594394  0.79285664    -0.23200
C4363       C  0.59657528  0.76286986  0.77901640    -0.03200
C4364       C  0.60426672  0.77945676  0.77258327    -0.17600
H4365       H  0.62732648  0.79778979  0.77670038     0.20400
H4366       H  0.62146981  0.72360309  0.82026997     0.18700
H4367       H  0.64694029  0.72734524  0.83754873     0.18700
H4368       H  0.60212442  0.79510107  0.76295556     0.14500
C4369       C  0.74068974  0.75956628  0.48241960     0.30000
C4370       C  0.74862278  0.77411312  0.49833484    -0.36400
C4371       C  0.75859269  0.76592826  0.51767164     0.16000
C4372       C  0.76074369  0.74485571  0.52089631     0.21800
C4373       C  0.75272916  0.73024073  0.50520438    -0.34500
C4374       C  0.74267882  0.73845323  0.48601160     0.15900
O4375       O  0.73065223  0.76389551  0.46415321    -0.26500
C4376       C  0.72606345  0.74533313  0.45580037     0.05700
C4377       C  0.73317883  0.72890709  0.46876591    -0.31400
O4378       O  0.77106589  0.74079803  0.53788405    -0.23200
C4379       C  0.77551120  0.75955567  0.54602337    -0.03200
C4380       C  0.76805108  0.77569495  0.53422736    -0.17600
H4381       H  0.74714114  0.79070608  0.49570801     0.20400
H4382       H  0.75427094  0.71365152  0.50746162     0.18700
H4383       H  0.73138162  0.71238456  0.46712055     0.18700
H4384       H  0.76972515  0.79227464  0.53526021     0.14500
C4385       C  0.69061990  0.89790838  0.45596792     0.30000
C4386       C  0.68747886  0.87822571  0.47065696    -0.36400
C4387       C  0.69258342  0.86116050  0.45131275     0.16000
C4388       C  0.70014851  0.86340351  0.41938464     0.21800
C4389       C  0.70349195  0.88312693  0.40523872    -0.34500
C4390       C  0.69842193  0.90020627  0.42472586     0.15900
O4391       O  0.68659140  0.91583903  0.46894246    -0.26500
C4392       C  0.69189776  0.92988668  0.44596773     0.05700
C4393       C  0.69940492  0.92110698  0.41783831    -0.31400
O4394       O  0.70252089  0.84551618  0.40217840    -0.23200
C4395       C  0.69664523  0.83158474  0.42381281    -0.03200
C4396       C  0.69036190  0.84037774  0.45503977    -0.17600
H4397       H  0.68117879  0.87635288  0.49462711     0.20400
H4398       H  0.70924464  0.88499092  0.37976628     0.18700
H4399       H  0.70478575  0.92893633  0.39580168     0.18700
H4400       H  0.68403473  0.83288821  0.47452973     0.14500
C4401       C  0.68936499  0.74564876  0.66933332     0.30000
C4402       C  0.68648723  0.73279362  0.63728926    -0.36400
C4403       C  0.68637991  0.74235587  0.59990912     0.16000
C4404       C  0.68904998  0.76310236  0.59409092     0.21800
C4405       C  0.69195304  0.77601575  0.62620934    -0.34500
C4406       C  0.69196879  0.76645129  0.66375318     0.15900
O4407       O  0.68927226  0.74019252  0.70709541    -0.26500
C4408       C  0.69183482  0.75773087  0.72605155     0.05700
C4409       C  0.69367440  0.77454586  0.70055483    -0.31400
O4410       O  0.68906050  0.76835273  0.55613815    -0.23200
C4411       C  0.68630885  0.75070691  0.53762353    -0.03200
C4412       C  0.68445360  0.73412984  0.56348116    -0.17600
H4413       H  0.68438482  0.71648805  0.64125124     0.20400
H4414       H  0.69404230  0.79232969  0.62224387     0.18700
H4415       H  0.69533440  0.79064340  0.70819578     0.18700
H4416       H  0.68271371  0.71800583  0.55627088     0.14500
C4417       C  0.68798855  0.76204601  0.16742473     0.30000
C4418       C  0.68583815  0.77253115  0.13154837    -0.36400
C4419       C  0.68649476  0.76041951  0.09708041     0.16000
C4420       C  0.68901702  0.73940224  0.09795962     0.21800
C4421       C  0.69117375  0.72890427  0.13388483    -0.34500
C4422       C  0.69061785  0.74106768  0.16837512     0.15900
O4423       O  0.68787178  0.77041559  0.20303208    -0.26500
C4424       C  0.69055586  0.75469467  0.22721417     0.05700
C4425       C  0.69237674  0.73599434  0.20735302    -0.31400
O4426       O  0.68952132  0.73124737  0.06215296    -0.23200
C4427       C  0.68729737  0.74721964  0.03799146    -0.03200
C4428       C  0.68534989  0.76580220  0.05807251    -0.17600
H4429       H  0.68390868  0.78902993  0.13057714     0.20400
H4430       H  0.69328951  0.71247613  0.13480515     0.18700
H4431       H  0.69449948  0.72090433  0.21982728     0.18700
H4432       H  0.68369529  0.78109621  0.04570724     0.14500
C4433       C  0.63844738  0.75101783  0.32570861     0.30000
C4434       C  0.62889869  0.73870009  0.31246042    -0.36400
C4435       C  0.61790564  0.74891384  0.30863601     0.16000
C4436       C  0.61649702  0.76972627  0.31751177     0.21800
C4437       C  0.62594565  0.78188555  0.33108984    -0.34500
C4438       C  0.63686331  0.77176754  0.33472747     0.15900
O4439       O  0.64965468  0.74521851  0.32894928    -0.26500
C4440       C  0.65526057  0.76251544  0.34024565     0.05700
C4441       C  0.64768954  0.77943689  0.34450786    -0.31400
O4442       O  0.60562635  0.77635576  0.31152924    -0.23200
C4443       C  0.59983276  0.75968230  0.29860158    -0.03200
C4444       C  0.60702606  0.74203973  0.29616947    -0.17600
H4445       H  0.63001735  0.72245499  0.30486959     0.20400
H4446       H  0.62489510  0.79826828  0.33766638     0.18700
H4447       H  0.64993510  0.79534807  0.35185612     0.18700
H4448       H  0.60458528  0.72649956  0.28692185     0.14500
C4449       C  0.50761809  0.51923756  0.99593034     0.30000
C4450       C  0.49850894  0.52850968  0.01819696    -0.36400
C4451       C  0.48977028  0.51496580  0.03278192     0.16000
C4452       C  0.49000925  0.49380546  0.02583343     0.21800
C4453       C  0.49906101  0.48457754  0.00351606    -0.34500
C4454       C  0.50775306  0.49808597  0.98890115     0.15900
O4455       O  0.51702750  0.52869841  0.98128516    -0.26500
C4456       C  0.52322310  0.51340472  0.96449447     0.05700
C4457       C  0.51781172  0.49404547  0.96813142    -0.31400
O4458       O  0.48065597  0.48419281  0.04013206    -0.23200
C4459       C  0.47428197  0.49930561  0.05656497    -0.03200
C4460       C  0.47955344  0.51882903  0.05312407    -0.17600
H4461       H  0.49826684  0.54508688  0.02380976     0.20400
H4462       H  0.49926905  0.46801161  0.99774953     0.18700
H4463       H  0.52117803  0.47900567  0.95904472     0.18700
H4464       H  0.47598080  0.53379504  0.06174956     0.14500
C4465       C  0.55428206  0.39763299  0.92014828     0.30000
C4466       C  0.55238843  0.37819806  0.90253871    -0.36400
C4467       C  0.55645227  0.36102145  0.92407783     0.16000
C4468       C  0.56205116  0.36292692  0.96032902     0.21800
C4469       C  0.56369517  0.38233287  0.97841553    -0.34500
C4470       C  0.55953565  0.39951745  0.95700975     0.15900
O4471       O  0.55242420  0.41573519  0.90316775    -0.26500
C4472       C  0.55625547  0.42935770  0.92980270     0.05700
C4473       C  0.56071916  0.42027263  0.96407132    -0.31400
O4474       O  0.56564867  0.34493005  0.97433177    -0.23200
C4475       C  0.56221391  0.33135061  0.94692161    -0.03200
C4476       C  0.55638889  0.34038870  0.91499592    -0.17600
H4477       H  0.54842699  0.37665177  0.87343352     0.20400
H4478       H  0.56822321  0.38395197  0.00656431     0.18700
H4479       H  0.56518335  0.42775982  0.98863052     0.18700
H4480       H  0.55276636  0.33289589  0.88893521     0.14500
C4481       C  0.55930722  0.64519530  0.79014620     0.30000
C4482       C  0.55996728  0.62396724  0.78098593    -0.36400
C4483       C  0.55926908  0.61028547  0.81325925     0.16000
C4484       C  0.55772376  0.61701007  0.85184219     0.21800
C4485       C  0.55721184  0.63829966  0.86110987    -0.34500
C4486       C  0.55821277  0.65203586  0.82884095     0.15900
O4487       O  0.55969529  0.66059584  0.76441067    -0.26500
C4488       C  0.55910874  0.67755156  0.78684796     0.05700
C4489       C  0.55822472  0.67326810  0.82725434    -0.31400
O4490       O  0.55697417  0.60143734  0.87721612    -0.23200
C4491       C  0.55826827  0.58461463  0.85460621    -0.03200
C4492       C  0.55978392  0.58913978  0.81460200    -0.17600
H4493       H  0.56099642  0.61851065  0.75078463     0.20400
H4494       H  0.55616165  0.64374893  0.89131080     0.18700
H4495       H  0.55740177  0.68416224  0.85159485     0.18700
H4496       H  0.56088609  0.57840420  0.79012795     0.14500
C4497       C  0.50502355  0.49769343  0.47968674     0.30000
C4498       C  0.49679003  0.48296771  0.49352983    -0.36400
C4499       C  0.48699614  0.49090543  0.51437239     0.16000
C4500       C  0.48535594  0.51189768  0.52097045     0.21800
C4501       C  0.49358503  0.52661954  0.50712929    -0.34500
C4502       C  0.50337540  0.51868181  0.48630321     0.15900
O4503       O  0.51514889  0.49365380  0.46153889    -0.26500
C4504       C  0.52003903  0.51232721  0.45614723     0.05700
C4505       C  0.51304632  0.52845335  0.47086936    -0.31400
O4506       O  0.47529814  0.51594026  0.53950126    -0.23200
C4507       C  0.47042834  0.49727251  0.54513996    -0.03200
C4508       C  0.47737607  0.48112874  0.53023616    -0.17600
H4509       H  0.49797480  0.46645258  0.48862323     0.20400
H4510       H  0.49242907  0.54312830  0.51219783     0.18700
H4511       H  0.51515091  0.54486954  0.47233671     0.18700
H4512       H  0.47531396  0.46468724  0.52922722     0.14500
C4513       C  0.56540616  0.36159109  0.44572047     0.30000
C4514       C  0.57117603  0.38043475  0.45262455    -0.36400
C4515       C  0.56437359  0.39830994  0.44696998     0.16000
C4516       C  0.55265494  0.39778775  0.43543664     0.21800
C4517       C  0.54686287  0.37880286  0.42833830    -0.34500
C4518       C  0.55373610  0.36080397  0.43368520     0.15900
O4519       O  0.57005610  0.34309282  0.45071647    -0.26500
C4520       C  0.56136162  0.33016007  0.44129122     0.05700
C4521       C  0.55096440  0.34020306  0.43017429    -0.31400
O4522       O  0.54833016  0.41657477  0.42903663    -0.23200
C4523       C  0.55740195  0.42910653  0.43687208    -0.03200
C4524       C  0.56759393  0.41858716  0.44796672    -0.17600
H4525       H  0.58037814  0.38110222  0.46144357     0.20400
H4526       H  0.53774080  0.37813554  0.41866352     0.18700
H4527       H  0.54247529  0.33336863  0.42308095     0.18700
H4528       H  0.57635280  0.42491014  0.45281428     0.14500
C4529       C  0.55660322  0.51936324  0.61052912     0.30000
C4530       C  0.55573526  0.53053311  0.64623775    -0.36400
C4531       C  0.55479374  0.51852695  0.68092175     0.16000
C4532       C  0.55473527  0.49704780  0.68025691     0.21800
C4533       C  0.55565475  0.48590421  0.64464774    -0.34500
C4534       C  0.55660498  0.49788296  0.61006347     0.15900
O4535       O  0.55712887  0.52739781  0.57458240    -0.26500
C4536       C  0.55752725  0.51086919  0.55083072     0.05700
C4537       C  0.55728134  0.49205274  0.57127000    -0.31400
O4538       O  0.55421886  0.48888768  0.71600220    -0.23200
C4539       C  0.55392292  0.50526323  0.74009556    -0.03200
C4540       C  0.55422654  0.52420137  0.71996203    -0.17600
H4541       H  0.55576724  0.54737613  0.64688995     0.20400
H4542       H  0.55566668  0.46905943  0.64400511     0.18700
H4543       H  0.55712755  0.47643828  0.55924485     0.18700
H4544       H  0.55456097  0.53973821  0.73229730     0.14500
C4545       C  0.55853594  0.49318589  0.18013286     0.30000
C4546       C  0.55976854  0.48233373  0.14421519    -0.36400
C4547       C  0.56120047  0.49463758  0.11012063     0.16000
C4548       C  0.56137172  0.51610790  0.11148523     0.21800
C4549       C  0.56018064  0.52693622  0.14735262    -0.34500
C4550       C  0.55873660  0.51465504  0.18135620     0.15900
O4551       O  0.55742114  0.48482660  0.21565220    -0.26500
C4552       C  0.55686902  0.50114010  0.23989246     0.05700
C4553       C  0.55760533  0.52013195  0.22019929    -0.31400
O4554       O  0.56207068  0.52457740  0.07602508    -0.23200
C4555       C  0.56240035  0.50840427  0.05146153    -0.03200
C4556       C  0.56196546  0.48930057  0.07098473    -0.17600
H4557       H  0.55956138  0.46550506  0.14294820     0.20400
H4558       H  0.56023637  0.54377152  0.14856713     0.18700
H4559       H  0.55777234  0.53562003  0.23280262     0.18700
H4560       H  0.56151461  0.47388515  0.05814733     0.14500
C4561       C  0.56488681  0.60957465  0.32611404     0.30000
C4562       C  0.57247127  0.62608845  0.31589841    -0.36400
C4563       C  0.56692836  0.64453179  0.30320058     0.16000
C4564       C  0.55479748  0.64628439  0.29958180     0.21800
C4565       C  0.54724502  0.62990305  0.31015218    -0.34500
C4566       C  0.55274963  0.61176276  0.32395856     0.15900
O4567       O  0.56806819  0.59117291  0.34003367    -0.26500
C4568       C  0.55781441  0.58173595  0.34750569     0.05700
C4569       C  0.54800941  0.59381040  0.33825924    -0.31400
O4570       O  0.55147563  0.66463484  0.28612126    -0.23200
C4571       C  0.56156365  0.67503205  0.28195793    -0.03200
C4572       C  0.57149320  0.66337581  0.29225556    -0.17600
H4573       H  0.58199225  0.62477004  0.31832713     0.20400
H4574       H  0.53771762  0.63132375  0.30830677     0.18700
H4575       H  0.53875000  0.58993119  0.34183566     0.18700
H4576       H  0.58070099  0.66793735  0.29076896     0.14500
C4577       C  0.73760137  0.49441024  0.64630581     0.30000
C4578       C  0.74568656  0.47934465  0.63269074    -0.36400
C4579       C  0.75575353  0.48698449  0.61289075     0.16000
C4580       C  0.75769288  0.50797302  0.60703209     0.21800
C4581       C  0.74966753  0.52296551  0.62074444    -0.34500
C4582       C  0.73966149  0.51536359  0.64056241     0.15900
O4583       O  0.72728221  0.49083684  0.66350016    -0.26500
C4584       C  0.72273599  0.50977636  0.66910322     0.05700
C4585       C  0.73011724  0.52559747  0.65555383    -0.31400
O4586       O  0.76785776  0.51181903  0.58938304    -0.23200
C4587       C  0.77256519  0.49309025  0.58361624    -0.03200
C4588       C  0.76539776  0.47698153  0.59753970    -0.17600
H4589       H  0.74419904  0.46285338  0.63700944     0.20400
H4590       H  0.75113940  0.53945202  0.61630114     0.18700
H4591       H  0.72835732  0.54215622  0.65451984     0.18700
H4592       H  0.76731975  0.46047437  0.59830012     0.14500
C4593       C  0.68305658  0.39575075  0.69941422     0.30000
C4594       C  0.67758427  0.37659999  0.70612140    -0.36400
C4595       C  0.68429138  0.35907540  0.69673794     0.16000
C4596       C  0.69568948  0.36019407  0.68207592     0.21800
C4597       C  0.70121491  0.37948944  0.67539753    -0.34500
C4598       C  0.69439443  0.39716389  0.68433085     0.15900
O4599       O  0.67830128  0.41398397  0.70641588    -0.26500
C4600       C  0.68657194  0.42742524  0.69529143     0.05700
C4601       C  0.69682197  0.41794110  0.68110581    -0.31400
O4602       O  0.69987719  0.34173814  0.67229483    -0.23200
C4603       C  0.69103173  0.32886270  0.68104902    -0.03200
C4604       C  0.68112760  0.33876840  0.69615851    -0.17600
H4605       H  0.66860182  0.37546784  0.71709491     0.20400
H4606       H  0.71004021  0.38063333  0.66308487     0.18700
H4607       H  0.70497495  0.42522730  0.67153330     0.18700
H4608       H  0.67254572  0.33212529  0.70278657     0.14500
C4609       C  0.68631010  0.64987497  0.79981889     0.30000
C4610       C  0.68586122  0.63721790  0.76597924    -0.36400
C4611       C  0.68532705  0.61572071  0.77305402     0.16000
C4612       C  0.68490106  0.60723626  0.81077442     0.21800
C4613       C  0.68539122  0.61988794  0.84458194    -0.34500
C4614       C  0.68629367  0.64133585  0.83751008     0.15900
O4615       O  0.68729048  0.67034152  0.80023347    -0.26500
C4616       C  0.68814791  0.67484547  0.83865354     0.05700
C4617       C  0.68763973  0.65744547  0.86318216    -0.31400
O4618       O  0.68486030  0.58670509  0.81046141    -0.23200
C4619       C  0.68548750  0.58204615  0.77208997    -0.03200
C4620       C  0.68579677  0.59942521  0.74744857    -0.17600
H4621       H  0.68627550  0.64363496  0.73625801     0.20400
H4622       H  0.68546572  0.61341927  0.87429097     0.18700
H4623       H  0.68813050  0.65682692  0.89527661     0.18700
H4624       H  0.68655766  0.59991640  0.71540031     0.14500
C4625       C  0.63179513  0.48843388  0.80113431     0.30000
C4626       C  0.62216519  0.47649001  0.81392105    -0.36400
C4627       C  0.61163491  0.48732625  0.82086874     0.16000
C4628       C  0.61055048  0.50855139  0.81575288     0.21800
C4629       C  0.62025430  0.52058936  0.80269045    -0.34500
C4630       C  0.63088609  0.50966588  0.79563225     0.15900
O4631       O  0.64249896  0.48130813  0.79414010    -0.26500
C4632       C  0.64869626  0.49805927  0.78388343     0.05700
C4633       C  0.64192457  0.51625795  0.78410907    -0.31400
O4634       O  0.59970704  0.51525732  0.82373023    -0.23200
C4635       C  0.59385169  0.49800360  0.83389542    -0.03200
C4636       C  0.60087710  0.48024316  0.83258640    -0.17600
H4637       H  0.62285916  0.45983802  0.81832924     0.20400
H4638       H  0.61957363  0.53724783  0.79843306     0.18700
H4639       H  0.64478846  0.53200643  0.77792258     0.18700
H4640       H  0.59834278  0.46430456  0.83870518     0.14500
C4641       C  0.75540919  0.50931391  0.10035837     0.30000
C4642       C  0.74690234  0.52422503  0.11097418    -0.36400
C4643       C  0.73702418  0.51681871  0.13190446     0.16000
C4644       C  0.73549520  0.49610149  0.14142411     0.21800
C4645       C  0.74398102  0.48110361  0.13053396    -0.34500
C4646       C  0.75392644  0.48855777  0.10974191     0.15900
O4647       O  0.76568701  0.51312354  0.08317932    -0.26500
C4648       C  0.77089020  0.49455752  0.08116082     0.05700
C4649       C  0.76393214  0.47865647  0.09705935    -0.31400
O4650       O  0.72540536  0.49265215  0.16026053    -0.23200
C4651       C  0.72047435  0.51147180  0.16318197    -0.03200
C4652       C  0.72734617  0.52704938  0.14601925    -0.17600
H4653       H  0.74800703  0.54055786  0.10397803     0.20400
H4654       H  0.74295861  0.46481453  0.13805366     0.18700
H4655       H  0.76623608  0.46242393  0.10100195     0.18700
H4656       H  0.72525290  0.54341044  0.14280316     0.14500
C4657       C  0.69373200  0.36256177  0.16632189     0.30000
C4658       C  0.69603355  0.38233514  0.15040250    -0.36400
C4659       C  0.69234226  0.39922837  0.17348853     0.16000
C4660       C  0.68673337  0.39671436  0.20962409     0.21800
C4661       C  0.68475917  0.37696911  0.22610211    -0.34500
C4662       C  0.68851246  0.36008945  0.20314122     0.15900
O4663       O  0.69519936  0.34475663  0.14783753    -0.26500
C4664       C  0.69114133  0.33073263  0.17348599     0.05700
C4665       C  0.68692809  0.33926102  0.20856607    -0.31400
O4666       O  0.68314854  0.41447105  0.22466520    -0.23200
C4667       C  0.68657816  0.42856858  0.19808633    -0.03200
C4668       C  0.69247578  0.42007523  0.16573568    -0.17600
H4669       H  0.69993947  0.38437156  0.12129252     0.20400
H4670       H  0.68017905  0.37490708  0.25408167     0.18700
H4671       H  0.68247793  0.33143573  0.23284453     0.18700
H4672       H  0.69595266  0.42799775  0.13984197     0.14500
C4673       C  0.68306197  0.49778237  0.01794681     0.30000
C4674       C  0.68390446  0.48362989  0.98643266    -0.36400
C4675       C  0.68540523  0.49234255  0.94853690     0.16000
C4676       C  0.68599145  0.51352740  0.94190361     0.21800
C4677       C  0.68516319  0.52770227  0.97344763    -0.34500
C4678       C  0.68365721  0.51897501  0.01138035     0.15900
O4679       O  0.68214248  0.49301305  0.05597929    -0.26500
C4680       C  0.68209296  0.51140280  0.07405571     0.05700
C4681       C  0.68296538  0.52809837  0.04770908    -0.31400
O4682       O  0.68692201  0.51821973  0.90381510    -0.23200
C4683       C  0.68698100  0.49977234  0.88587142    -0.03200
C4684       C  0.68611921  0.48314606  0.91231416    -0.17600
H4685       H  0.68345911  0.46697839  0.99113821     0.20400
H4686       H  0.68562443  0.54435480  0.96874820     0.18700
H4687       H  0.68359062  0.54452505  0.05451732     0.18700
H4688       H  0.68554863  0.46669902  0.90564377     0.14500
C4689       C  0.68533119  0.49662726  0.51767209     0.30000
C4690       C  0.68577739  0.48276056  0.48566724    -0.36400
C4691       C  0.68708159  0.49183765  0.44802895     0.16000
C4692       C  0.68782753  0.51307542  0.44210123     0.21800
C4693       C  0.68743056  0.52693123  0.47411367    -0.34500
C4694       C  0.68613274  0.51785658  0.51173292     0.15900
O4695       O  0.68455462  0.49157219  0.55558323    -0.26500
C4696       C  0.68484379  0.50983784  0.57404260     0.05700
C4697       C  0.68575657  0.52669890  0.54820748    -0.31400
O4698       O  0.68836697  0.51817334  0.40417259    -0.23200
C4699       C  0.68803140  0.49993284  0.38563950    -0.03200
C4700       C  0.68730777  0.48303227  0.41148039    -0.17600
H4701       H  0.68513873  0.46608550  0.48979247     0.20400
H4702       H  0.68800150  0.54361321  0.46997617     0.18700
H4703       H  0.68653415  0.54305972  0.55540148     0.18700
H4704       H  0.68644310  0.46668810  0.40426434     0.14500
C4705       C  0.68657155  0.61541098  0.27762788     0.30000
C4706       C  0.68717482  0.63661181  0.26752350    -0.36400
C4707       C  0.68863943  0.65050087  0.29924644     0.16000
C4708       C  0.68967751  0.64392141  0.33814326     0.21800
C4709       C  0.68883996  0.62274583  0.34831146    -0.34500
C4710       C  0.68711718  0.60888381  0.31667042     0.15900
O4711       O  0.68582980  0.59973301  0.25256446    -0.26500
C4712       C  0.68564720  0.58295491  0.27582569     0.05700
C4713       C  0.68628195  0.58767621  0.31606582    -0.31400
O4714       O  0.69124708  0.65951694  0.36300263    -0.23200
C4715       C  0.69099984  0.67634155  0.33986038    -0.03200
C4716       C  0.68936608  0.67170193  0.29988726    -0.17600
H4717       H  0.68663743  0.64188762  0.23702359     0.20400
H4718       H  0.68953731  0.61744725  0.37875691     0.18700
H4719       H  0.68673745  0.57700531  0.34094344     0.18700
H4720       H  0.68882055  0.68238663  0.27504476     0.14500
C4721       C  0.63170662  0.48853254  0.30521458     0.30000
C4722       C  0.62190215  0.47617015  0.31383152    -0.36400
C4723       C  0.61172805  0.48677398  0.32553640     0.16000
C4724       C  0.61109436  0.50816039  0.32867908     0.21800
C4725       C  0.62101438  0.52066849  0.32007720    -0.34500
C4726       C  0.63129994  0.50996121  0.30812039     0.15900
O4727       O  0.64212145  0.48154214  0.29440189    -0.26500
C4728       C  0.64859125  0.49860543  0.28992490     0.05700
C4729       C  0.64235217  0.51686229  0.29797395    -0.31400
O4730       O  0.60037346  0.51456393  0.33885752    -0.23200
C4731       C  0.59422475  0.49692074  0.34223345    -0.03200
C4732       C  0.60089194  0.47926558  0.33436967    -0.17600
H4733       H  0.62217813  0.45937661  0.31140459     0.20400
H4734       H  0.62071197  0.53746777  0.32220834     0.18700
H4735       H  0.64558604  0.53271457  0.29765610     0.18700
H4736       H  0.59803297  0.46318587  0.33381703     0.14500
loop_ 
_geom_bond_atom_site_label_1 
_geom_bond_atom_site_label_2 
_geom_bond_distance 
_geom_bond_site_symmetry_2 
_ccdc_geom_bond_type 
O1           Ni7   1.926       .  S
O1           C22   1.271       .  A
O2          Ni25   1.921       .  S
O2           C11   1.268       .  A
O3           Ni7   1.905       .  S
O3          Ni25   1.911       .  S
O3          Ni19   1.924       .  S
O3           H26   0.966       .  S
C4           O21   1.280       .  A
C4           O13   1.275       .  A
C4         C4699   1.466       .  S
O5          Ni24   1.901       .  S
O5           C11   1.262       .  A
O6          Ni24   1.896       .  S
O6            C8   1.266       .  A
Ni7          O10   1.917       .  S
Ni7          O12   1.917       .  S
C8           O18   1.271       .  A
C8         C4728   1.466       .  S
O9          Ni25   1.926       .  S
O9           C15   1.279       .  A
O10          C15   1.275       .  A
C11        C4667   1.461       .  S
O12          C14   1.272       .  A
O13         Ni24   1.908       .  S
C14          O20   1.271       .  A
C14        C4651   1.478       .  S
C15        C4680   1.471       .  S
H16          O17   0.966       .  S
O17         Ni25   1.923       .  S
O17         Ni19   1.902       .  S
O17         Ni24   1.901       .  S
O18         Ni19   1.932       .  S
Ni19         O23   1.913       .  S
Ni19         O21   1.929       .  S
O20         Ni25   1.926       .  S
C22          O23   1.270       .  A
C22        C4712   1.469       .  S
O27         Ni33   1.918       .  S
O27          C48   1.270       .  A
O28         Ni51   1.920       .  S
O28          C37   1.266       .  A
O29         Ni33   1.904       .  S
O29         Ni51   1.909       .  S
O29         Ni45   1.920       .  S
O29          H52   0.966       .  S
C30          O47   1.280       .  A
C30          O39   1.277       .  A
C30        C4683   1.472       .  S
O31         Ni50   1.912       .  S
O31          C37   1.264       .  A
O32         Ni50   1.899       .  S
O32          C34   1.266       .  A
Ni33         O36   1.911       .  S
Ni33         O38   1.913       .  S
C34          O44   1.273       .  A
C34        C4632   1.477       .  S
O35         Ni51   1.922       .  S
O35          C41   1.278       .  A
O36          C41   1.275       .  A
C37        C4600   1.460       .  S
O38          C40   1.270       .  A
O39         Ni50   1.917       .  S
C40          O46   1.271       .  A
C40        C4584   1.475       .  S
C41        C4696   1.465       .  S
H42          O43   0.967       .  S
O43         Ni51   1.919       .  S
O43         Ni45   1.901       .  S
O43         Ni50   1.901       .  S
O44         Ni45   1.943       .  S
Ni45         O49   1.908       .  S
Ni45         O47   1.929       .  S
O46         Ni51   1.927       .  S
C48          O49   1.268       .  A
C48        C4619   1.462       .  S
O53         Ni59   1.938       .  S
O53          C74   1.274       .  A
O54         Ni77   1.916       .  S
O54          C63   1.267       .  A
O55         Ni59   1.895       .  S
O55         Ni77   1.901       .  S
O55         Ni71   1.906       .  S
O55          H78   0.967       .  S
C56          O73   1.280       .  A
C56          O65   1.276       .  A
C56        C4552   1.465       .  S
O57         Ni76   1.915       .  S
O57          C63   1.265       .  A
O58         Ni76   1.895       .  S
O58          C60   1.266       .  A
Ni59         O62   1.923       .  S
Ni59         O64   1.912       .  S
C60          O70   1.269       .  A
C60        C4731   1.469       .  S
O61         Ni77   1.921       .  S
O61          C67   1.280       .  A
O62          C67   1.278       .  A
C63        C4523   1.455       .  S
O64          C66   1.270       .  A
O65         Ni76   1.914       .  S
C66          O72   1.273       .  A
C66        C4504   1.479       .  S
C67        C4536   1.466       .  S
H68          O69   0.966       .  S
O69         Ni77   1.913       .  S
O69         Ni71   1.899       .  S
O69         Ni76   1.897       .  S
O70         Ni71   1.930       .  S
Ni71         O75   1.903       .  S
Ni71         O73   1.924       .  S
O72         Ni77   1.932       .  S
C74          O75   1.265       .  A
C74        C4568   1.464       .  S
O79         Ni85   1.923       .  S
O79         C100   1.270       .  A
O80        Ni103   1.907       .  S
O80          C89   1.264       .  A
O81         Ni85   1.911       .  S
O81        Ni103   1.907       .  S
O81         Ni97   1.919       .  S
O81         H104   0.966       .  S
C82          O99   1.278       .  A
C82          O91   1.272       .  A
C82        C4539   1.467       .  S
O83        Ni102   1.908       .  S
O83          C89   1.264       .  A
O84        Ni102   1.902       .  S
O84          C86   1.269       .  A
Ni85         O88   1.915       .  S
Ni85         O90   1.913       .  S
C86          O96   1.274       .  A
C86        C4635   1.478       .  S
O87        Ni103   1.920       .  S
O87          C93   1.276   1_556  A
O88          C93   1.273   1_556  A
C89        C4472   1.450       .  S
O90          C92   1.269       .  A
O91        Ni102   1.907       .  S
C92          O98   1.271       .  A
C92        C4456   1.472       .  S
C93        C4555   1.466       .  S
H94          O95   0.966       .  S
O95        Ni103   1.920       .  S
O95         Ni97   1.905       .  S
O95        Ni102   1.904       .  S
O96         Ni97   1.941       .  S
Ni97        O101   1.903       .  S
Ni97         O99   1.928       .  S
O98        Ni103   1.923       .  S
C100        O101   1.269       .  A
C100       C4491   1.462       .  S
O105       Ni111   1.928       .  S
O105        C126   1.271       .  A
O106       Ni129   1.911       .  S
O106        C115   1.268       .  A
O107       Ni111   1.908       .  S
O107       Ni129   1.905       .  S
O107       Ni123   1.910       .  S
O107        H130   0.968       .  S
C108        O125   1.270       .  A
C108        O117   1.269       .  A
C108       C4424   1.468       .  S
O109       Ni128   1.915       .  S
O109        C115   1.268       .  A
O110       Ni128   1.911       .  S
O110        C112   1.274       .  A
Ni111       O114   1.913       .  S
Ni111       O116   1.917       .  S
C112        O122   1.278       .  A
C112       C4440   1.479       .  S
O113       Ni129   1.921       .  S
O113        C119   1.275       .  A
O114        C119   1.274       .  A
C115       C4395   1.461       .  S
O116        C118   1.272       .  A
O117       Ni128   1.922       .  S
C118        O124   1.274       .  A
C118       C4376   1.478       .  S
C119       C4411   1.467       .  S
H120        O121   0.966       .  S
O121       Ni129   1.933       .  S
O121       Ni123   1.916       .  S
O121       Ni128   1.917       .  S
O122       Ni123   1.953       .  S
Ni123       O127   1.910       .  S
Ni123       O125   1.914       .  S
O124       Ni129   1.930       .  S
C126        O127   1.269       .  A
C126       C4715   1.471       .  S
O131       Ni137   1.926       .  S
O131        C152   1.272       .  A
O132       Ni155   1.926       .  S
O132        C141   1.270       .  A
O133       Ni137   1.910       .  S
O133       Ni155   1.910       .  S
O133       Ni149   1.925       .  S
O133        H156   0.968       .  S
C134        O151   1.281       .  A
C134        O143   1.274       .  A
C134       C4408   1.467       .  S
O135       Ni154   1.904       .  S
O135        C141   1.263       .  A
O136       Ni154   1.906       .  S
O136        C138   1.267       .  A
Ni137       O140   1.919       .  S
Ni137       O142   1.915       .  S
C138        O148   1.276       .  A
C138       C4360   1.483       .  S
O139       Ni155   1.923       .  S
O139        C145   1.278       .  A
O140        C145   1.275       .  A
C141       C4344   1.468       .  S
O142        C144   1.271       .  A
O143       Ni154   1.907       .  S
C144        O150   1.274       .  A
C144       C4328   1.479       .  S
C145       C4427   1.469   1_556  S
H146        O147   0.967       .  S
O147       Ni155   1.921       .  S
O147       Ni149   1.898       .  S
O147       Ni154   1.900       .  S
O148       Ni149   1.950       .  S
Ni149       O153   1.907       .  S
Ni149       O151   1.934       .  S
O150       Ni155   1.935       .  S
C152        O153   1.269       .  A
C152       C4616   1.464       .  S
O157       Ni163   1.932       .  S
O157        C178   1.271       .  A
O158       Ni181   1.926       .  S
O158        C167   1.271       .  A
O159       Ni163   1.900       .  S
O159       Ni181   1.905       .  S
O159       Ni175   1.909       .  S
O159        H182   0.967       .  S
C160        O177   1.279       .  A
C160        O169   1.273       .  A
C160       C4312   1.469       .  S
O161       Ni180   1.914       .  S
O161        C167   1.266       .  A
O162       Ni180   1.906       .  S
O162        C164   1.268       .  A
Ni163       O166   1.918       .  S
Ni163       O168   1.910       .  S
C164        O174   1.275       .  A
C164       C4443   1.478       .  S
O165       Ni181   1.923       .  S
O165        C171   1.280       .  A
O166        C171   1.277       .  A
C167       C4280   1.471       .  S
O168        C170   1.268       .  A
O169       Ni180   1.910       .  S
C170        O176   1.275       .  A
C170       C4267   1.480       .  S
C171       C4299   1.464       .  S
H172        O173   0.966       .  S
O173       Ni181   1.923       .  S
O173       Ni175   1.912       .  S
O173       Ni180   1.903       .  S
O174       Ni175   1.942       .  S
Ni175       O179   1.916       .  S
Ni175       O177   1.932       .  S
O176       Ni181   1.938       .  S
C178        O179   1.270       .  A
C178       C4571   1.467       .  S
O183       Ni189   1.924       .  S
O183        C204   1.270       .  A
O184       Ni207   1.916       .  S
O184        C193   1.270       .  A
O185       Ni189   1.910       .  S
O185       Ni207   1.904       .  S
O185       Ni201   1.909       .  S
O185        H208   0.966       .  S
C186        O203   1.268       .  A
C186        O195   1.265       .  A
C186       C4296   1.465       .  S
O187       Ni206   1.905       .  S
O187        C193   1.266       .  A
O188       Ni206   1.913       .  S
O188        C190   1.276       .  A
Ni189       O192   1.916       .  S
Ni189       O194   1.911       .  S
C190        O200   1.282       .  A
C190       C4363   1.481       .  S
O191       Ni207   1.926       .  S
O191        C197   1.278       .  A
O192        C197   1.273       .  A
C193       C4248   1.462       .  S
O194        C196   1.270       .  A
O195       Ni206   1.919       .  S
C196        O202   1.274       .  A
C196       C4232   1.478       .  S
C197       C4315   1.470       .  S
H198        O199   0.966       .  S
O199       Ni207   1.940       .  S
O199       Ni201   1.911       .  S
O199       Ni206   1.917       .  S
O200       Ni201   1.960       .  S
Ni201       O205   1.906       .  S
Ni201       O203   1.914       .  S
O202       Ni207   1.934       .  S
C204        O205   1.268       .  A
C204       C4488   1.462       .  S
O209       Ni215   1.931       .  S
O209        C230   1.270       .  A
O210       Ni233   1.926       .  S
O210        C219   1.270       .  A
O211       Ni215   1.895       .  S
O211       Ni233   1.904   1_545  S
O211       Ni227   1.906       .  S
O211        H234   0.966       .  S
C212        O229   1.278       .  A
C212        O221   1.275   1_545  A
C212       C4171   1.470       .  S
O213       Ni232   1.910       .  S
O213        C219   1.264       .  A
O214       Ni232   1.901       .  S
O214        C216   1.267       .  A
Ni215       O218   1.917       .  S
Ni215       O220   1.905       .  S
C216        O226   1.272   1_565  A
C216       C4219   1.472   1_565  S
O217       Ni233   1.925       .  S
O217        C223   1.281   1_565  A
O218        C223   1.278       .  A
C219       C4392   1.467       .  S
O220        C222   1.268       .  A
O221       Ni232   1.916       .  S
C222        O228   1.273   1_545  A
C222       C4155   1.480       .  S
C223       C4187   1.467       .  S
H224        O225   0.966       .  S
O225       Ni233   1.926       .  S
O225       Ni227   1.906   1_565  S
O225       Ni232   1.901       .  S
O226       Ni227   1.935       .  S
Ni227       O231   1.906       .  S
Ni227       O229   1.928       .  S
O228       Ni233   1.938       .  S
C230        O231   1.267       .  A
C230       C4200   1.462       .  S
O235       Ni241   1.927       .  S
O235        C256   1.270   1_556  A
O236       Ni259   1.924       .  S
O236        C245   1.271       .  A
O237       Ni241   1.914       .  S
O237       Ni259   1.911   1_545  S
O237       Ni253   1.911   1_556  S
O237        H260   0.966       .  S
C238        O255   1.268       .  A
C238        O247   1.266   1_545  A
C238       C4184   1.467       .  S
O239       Ni258   1.905   1_556  S
O239        C245   1.266       .  A
O240       Ni258   1.902       .  S
O240        C242   1.273       .  A
Ni241       O244   1.917       .  S
Ni241       O246   1.915       .  S
C242        O252   1.281   1_565  A
C242       C4139   1.478       .  S
O243       Ni259   1.922       .  S
O243        C249   1.277   1_565  A
O244        C249   1.273       .  A
C245       C4347   1.467       .  S
O246        C248   1.271       .  A
O247       Ni258   1.913       .  S
C248        O254   1.274   1_545  A
C248       C4104   1.480       .  S
C249       C4168   1.470       .  S
H250        O251   0.966   1_554  S
O251       Ni259   1.936       .  S
O251       Ni253   1.916   1_566  S
O251       Ni258   1.913   1_556  S
O252       Ni253   1.963       .  S
Ni253       O257   1.906       .  S
Ni253       O255   1.919       .  S
O254       Ni259   1.934       .  S
C256        O257   1.267       .  A
C256       C4123   1.465       .  S
O261       Ni267   1.919       .  S
O261        C282   1.268       .  A
O262       Ni285   1.923       .  S
O262        C271   1.270       .  A
O263       Ni267   1.908       .  S
O263       Ni285   1.907   1_545  S
O263       Ni279   1.915       .  S
O263        H286   0.966       .  S
C264        O281   1.274       .  A
C264        O273   1.271   1_545  A
C264       C4056   1.474   1_554  S
O265       Ni284   1.916       .  S
O265        C271   1.267       .  A
O266       Ni284   1.906       .  S
O266        C268   1.270       .  A
Ni267       O270   1.910       .  S
Ni267       O272   1.910       .  S
C268        O278   1.274   1_565  A
C268       C4136   1.473       .  S
O269       Ni285   1.928       .  S
O269        C275   1.279   1_565  A
O270        C275   1.274       .  A
C271       C4283   1.468       .  S
O272        C274   1.268       .  A
O273       Ni284   1.917       .  S
C274        O280   1.272   1_545  A
C274       C4043   1.471       .  S
C275       C4075   1.468       .  S
H276        O277   0.966       .  S
O277       Ni285   1.929       .  S
O277       Ni279   1.913   1_565  S
O277       Ni284   1.913       .  S
O278       Ni279   1.935       .  S
Ni279       O283   1.907       .  S
Ni279       O281   1.925       .  S
O280       Ni285   1.924       .  S
C282        O283   1.268       .  A
C282       C4091   1.462       .  S
O287       Ni293   1.935       .  S
O287        C308   1.272       .  A
O288       Ni311   1.914       .  S
O288        C297   1.267       .  A
O289       Ni293   1.903       .  S
O289       Ni311   1.900   1_545  S
O289       Ni305   1.914       .  S
O289        H312   0.966       .  S
C290        O307   1.279   1_565  A
C290        O299   1.275       .  A
C290       C4072   1.468   1_565  S
O291       Ni310   1.908       .  S
O291        C297   1.265       .  A
O292       Ni310   1.904       .  S
O292        C294   1.269       .  A
Ni293       O296   1.926       .  S
Ni293       O298   1.911       .  S
C294        O304   1.272   1_565  A
C294       C4216   1.477       .  S
O295       Ni311   1.925       .  S
O295        C301   1.281   1_565  A
O296        C301   1.279       .  A
C297       C4251   1.462       .  S
O298        C300   1.268       .  A
O299       Ni310   1.910       .  S
C300        O306   1.269   1_545  A
C300       C4008   1.472       .  S
C301       C4059   1.472       .  S
H302        O303   0.966       .  S
O303       Ni311   1.921       .  S
O303       Ni305   1.901   1_565  S
O303       Ni310   1.897       .  S
O304       Ni305   1.937       .  S
Ni305       O309   1.901       .  S
Ni305       O307   1.929       .  S
O306       Ni311   1.922       .  S
C308        O309   1.266       .  A
C308       C4024   1.459       .  S
O313       Ni319   1.921       .  S
O313        C334   1.270       .  A
O314       Ni337   1.908       .  S
O314        C323   1.265       .  A
O315       Ni319   1.910       .  S
O315       Ni337   1.912       .  S
O315       Ni331   1.923       .  S
O315        H338   0.968       .  S
C316        O333   1.278       .  A
C316        O325   1.272       .  A
C316       C3960   1.472   1_554  S
O317       Ni336   1.910       .  S
O317        C323   1.264       .  A
O318       Ni336   1.906       .  S
O318        C320   1.269       .  A
Ni319       O322   1.914       .  S
Ni319       O324   1.914       .  S
C320        O330   1.274       .  A
C320       C3992   1.480       .  S
O321       Ni337   1.924       .  S
O321        C327   1.275       .  A
O322        C327   1.273       .  A
C323       C4664   1.453       .  S
O324        C326   1.271       .  A
O325       Ni336   1.910       .  S
C326        O332   1.272       .  A
C326       C3944   1.479       .  S
C327       C3976   1.472       .  S
H328        O329   0.966       .  S
O329       Ni337   1.923       .  S
O329       Ni331   1.907       .  S
O329       Ni336   1.908       .  S
O330       Ni331   1.942       .  S
Ni331       O335   1.907       .  S
Ni331       O333   1.932       .  S
O332       Ni337   1.932       .  S
C334        O335   1.269       .  A
C334       C4120   1.463       .  S
O339       Ni345   1.932       .  S
O339        C360   1.273       .  A
O340       Ni363   1.906       .  S
O340        C349   1.265       .  A
O341       Ni345   1.894       .  S
O341       Ni363   1.896       .  S
O341       Ni357   1.914       .  S
O341        H364   0.968       .  S
C342        O359   1.282       .  A
C342        O351   1.277       .  A
C342       C3979   1.472       .  S
O343       Ni362   1.918       .  S
O343        C349   1.267       .  A
O344       Ni362   1.902       .  S
O344        C346   1.266       .  A
Ni345       O348   1.923       .  S
Ni345       O350   1.911       .  S
C346        O356   1.273       .  A
C346       C3928   1.475       .  S
O347       Ni363   1.924       .  S
O347        C353   1.279       .  A
O348        C353   1.280       .  A
C349       C4603   1.451       .  S
O350        C352   1.269       .  A
O351       Ni362   1.916       .  S
C352        O358   1.273       .  A
C352       C3915   1.480       .  S
C353       C3963   1.470       .  S
H354        O355   0.966       .  S
O355       Ni363   1.912       .  S
O355       Ni357   1.896       .  S
O355       Ni362   1.894       .  S
O356       Ni357   1.941       .  S
Ni357       O361   1.907       .  S
Ni357       O359   1.933       .  S
O358       Ni363   1.934       .  S
C360        O361   1.268       .  A
C360       C4203   1.461       .  S
O365       Ni371   1.926       .  S
O365        C386   1.271       .  A
O366       Ni389   1.918       .  S
O366        C375   1.267       .  A
O367       Ni371   1.894       .  S
O367       Ni389   1.901       .  S
O367       Ni383   1.912       .  S
O367        H390   0.967       .  S
C368        O385   1.281       .  A
C368        O377   1.277       .  A
C368       C3883   1.464       .  S
O369       Ni388   1.908       .  S
O369        C375   1.263       .  A
O370       Ni388   1.893       .  S
O370        C372   1.265       .  A
Ni371       O374   1.920       .  S
Ni371       O376   1.910       .  S
C372        O382   1.274       .  A
C372       C3931   1.477       .  S
O373       Ni389   1.927       .  S
O373        C379   1.281       .  A
O374        C379   1.279       .  A
C375       C4520   1.456       .  S
O376        C378   1.268       .  A
O377       Ni388   1.915       .  S
C378        O384   1.271       .  A
C378       C3867   1.476       .  S
C379       C3899   1.469       .  S
H380        O381   0.967       .  S
O381       Ni389   1.917       .  S
O381       Ni383   1.894       .  S
O381       Ni388   1.889       .  S
O382       Ni383   1.945       .  S
Ni383       O387   1.911       .  S
Ni383       O385   1.926       .  S
O384       Ni389   1.929       .  S
C386        O387   1.268       .  A
C386       C4027   1.461       .  S
O391       Ni397   1.924       .  S
O391        C412   1.270   1_556  A
O392       Ni415   1.916       .  S
O392        C401   1.268       .  A
O393       Ni397   1.903       .  S
O393       Ni415   1.908       .  S
O393       Ni409   1.921   1_556  S
O393        H416   0.967       .  S
C394        O411   1.279       .  A
C394        O403   1.275       .  A
C394       C3896   1.469       .  S
O395       Ni414   1.900   1_556  S
O395        C401   1.261       .  A
O396       Ni414   1.902       .  S
O396        C398   1.266       .  A
Ni397       O400   1.918       .  S
Ni397       O402   1.909       .  S
C398        O408   1.274       .  A
C398       C3995   1.476       .  S
O399       Ni415   1.916       .  S
O399        C405   1.276       .  A
O400        C405   1.274       .  A
C401       C4475   1.456       .  S
O402        C404   1.269       .  A
O403       Ni414   1.908       .  S
C404        O410   1.275       .  A
C404       C3848   1.477       .  S
C405       C3880   1.464       .  S
H406        O407   0.966   1_554  S
O407       Ni415   1.920       .  S
O407       Ni409   1.895   1_556  S
O407       Ni414   1.899   1_556  S
O408       Ni409   1.940       .  S
Ni409       O413   1.899       .  S
Ni409       O411   1.932       .  S
O410       Ni415   1.936       .  S
C412        O413   1.267       .  A
C412       C4088   1.457       .  S
O417       Ni423   1.908       .  S
O417        C438   1.263       .  A
O418       Ni441   1.914       .  S
O418        C427   1.271       .  A
O419       Ni423   1.911       .  S
O419       Ni441   1.914       .  S
O419       Ni435   1.924       .  S
O419        H442   0.966       .  S
C420        O437   1.277       .  A
C420        O429   1.275       .  A
C420       C3803   1.465       .  S
O421       Ni440   1.925       .  S
O421        C427   1.272       .  A
O422       Ni440   1.917       .  S
O422        C424   1.272       .  A
Ni423       O426   1.910       .  S
Ni423       O428   1.895       .  S
C424        O434   1.275       .  A
C424       C3755   1.484       .  S
O425       Ni441   1.930       .  S
O425        C431   1.278       .  A
O426        C431   1.271       .  A
C427       C3816   1.470       .  S
O428        C430   1.266       .  A
O429       Ni440   1.916       .  S
C430        O436   1.275       .  A
C430       C3832   1.471       .  S
C431       C3784   1.470       .  S
H432        O433   0.966       .  S
O433       Ni441   1.920       .  S
O433       Ni435   1.908       .  S
O433       Ni440   1.905       .  S
O434       Ni435   1.938       .  S
Ni435       O439   1.923       .  S
Ni435       O437   1.920       .  S
O436       Ni441   1.944       .  S
C438        O439   1.270       .  A
C438       C3771   1.464       .  S
O443       Ni449   1.909       .  S
O443        C464   1.265       .  A
O444       Ni467   1.909       .  S
O444        C453   1.267       .  A
O445       Ni449   1.906       .  S
O445       Ni467   1.898       .  S
O445       Ni461   1.921       .  S
O445        H468   0.966       .  S
C446        O463   1.278       .  A
C446        O455   1.278       .  A
C446       C3787   1.468       .  S
O447       Ni466   1.935       .  S
O447        C453   1.270       .  A
O448       Ni466   1.900       .  S
O448        C450   1.267       .  A
Ni449       O452   1.912       .  S
Ni449       O454   1.908       .  S
C450        O460   1.274       .  A
C450       C3688   1.477       .  S
O451       Ni467   1.920       .  S
O451        C457   1.278       .  A
O452        C457   1.275       .  A
C453       C3723   1.465       .  S
O454        C456   1.268       .  A
O455       Ni466   1.924       .  S
C456        O462   1.274       .  A
C456       C3739   1.476       .  S
C457       C3800   1.463   1_556  S
H458        O459   0.966       .  S
O459       Ni467   1.912       .  S
O459       Ni461   1.907       .  S
O459       Ni466   1.903       .  S
O460       Ni461   1.939       .  S
Ni461       O465   1.913       .  S
Ni461       O463   1.919       .  S
O462       Ni467   1.937       .  S
C464        O465   1.268       .  A
C464       C3704   1.463       .  S
O469       Ni475   1.906   1_554  S
O469        C490   1.266       .  A
O470       Ni493   1.908       .  S
O470        C479   1.266       .  A
O471       Ni475   1.916       .  S
O471       Ni493   1.918       .  S
O471       Ni487   1.938   1_556  S
O471        H494   0.967       .  S
C472        O489   1.277       .  A
C472        O481   1.273       .  A
C472       C3659   1.471       .  S
O473       Ni492   1.920       .  S
O473        C479   1.269   1_554  A
O474       Ni492   1.912       .  S
O474        C476   1.270       .  A
Ni475       O478   1.913       .  S
Ni475       O480   1.909       .  S
C476        O486   1.273       .  A
C476       C4648   1.477       .  S
O477       Ni493   1.917       .  S
O477        C483   1.268       .  A
O478        C483   1.266       .  A
C479       C3675   1.465       .  S
O480        C482   1.274       .  A
O481       Ni492   1.912       .  S
C482        O488   1.279       .  A
C482       C3736   1.477       .  S
C483       C3643   1.467       .  S
H484        O485   0.966       .  S
O485       Ni493   1.909   1_554  S
O485       Ni487   1.907       .  S
O485       Ni492   1.913       .  S
O486       Ni487   1.933       .  S
Ni487       O491   1.919       .  S
Ni487       O489   1.926       .  S
O488       Ni493   1.954       .  S
C490        O491   1.270       .  A
C490       C3624   1.464       .  S
O495       Ni501   1.917       .  S
O495        C516   1.266       .  A
O496       Ni519   1.902       .  S
O496        C505   1.266       .  A
O497       Ni501   1.910       .  S
O497       Ni519   1.907       .  S
O497       Ni513   1.924       .  S
O497        H520   0.966       .  S
C498        O515   1.279       .  A
C498        O507   1.273       .  A
C498       C3640   1.468       .  S
O499       Ni518   1.920       .  S
O499        C505   1.269       .  A
O500       Ni518   1.914       .  S
O500        C502   1.270       .  A
Ni501       O504   1.918       .  S
Ni501       O506   1.905       .  S
C502        O512   1.272       .  A
C502       C4587   1.472       .  S
O503       Ni519   1.923       .  S
O503        C509   1.275       .  A
O504        C509   1.274       .  A
C505       C3608   1.457       .  S
O506        C508   1.269       .  A
O507       Ni518   1.908       .  S
C508        O514   1.271       .  A
C508       C3835   1.474       .  S
C509       C3656   1.472       .  S
H510        O511   0.966       .  S
O511       Ni519   1.917       .  S
O511       Ni513   1.908       .  S
O511       Ni518   1.911       .  S
O512       Ni513   1.923       .  S
Ni513       O517   1.923       .  S
Ni513       O515   1.929       .  S
O514       Ni519   1.932       .  S
C516        O517   1.270       .  A
C516       C3592   1.464       .  S
O521       Ni527   1.906   1_554  S
O521        C542   1.264       .  A
O522       Ni545   1.912       .  S
O522        C531   1.268       .  A
O523       Ni527   1.900       .  S
O523       Ni545   1.904       .  S
O523       Ni539   1.923   1_556  S
O523        H546   0.966       .  S
C524        O541   1.279       .  A
C524        O533   1.277       .  A
C524       C3560   1.463       .  S
O525       Ni544   1.931       .  S
O525        C531   1.272   1_554  A
O526       Ni544   1.912       .  S
O526        C528   1.270       .  A
Ni527       O530   1.909       .  S
Ni527       O532   1.905       .  S
C528        O538   1.273       .  A
C528       C3515   1.480       .  S
O529       Ni545   1.933       .  S
O529        C535   1.282       .  A
O530        C535   1.274       .  A
C531       C3720   1.465       .  S
O532        C534   1.268       .  A
O533       Ni544   1.920       .  S
C534        O540   1.272       .  A
C534       C3579   1.476       .  S
C535       C3544   1.468       .  S
H536        O537   0.967       .  S
O537       Ni545   1.916   1_554  S
O537       Ni539   1.903       .  S
O537       Ni544   1.901       .  S
O538       Ni539   1.934       .  S
Ni539       O543   1.924       .  S
Ni539       O541   1.919       .  S
O540       Ni545   1.938       .  S
C542        O543   1.269       .  A
C542       C3531   1.464       .  S
O547       Ni553   1.901       .  S
O547        C568   1.263       .  A
O548       Ni571   1.906       .  S
O548        C557   1.267       .  A
O549       Ni553   1.899       .  S
O549       Ni571   1.897       .  S
O549       Ni565   1.924       .  S
O549        H572   0.966       .  S
C550        O567   1.279       .  A
C550        O559   1.274       .  A
C550       C3547   1.468       .  S
O551       Ni570   1.927       .  S
O551        C557   1.271       .  A
O552       Ni570   1.913       .  S
O552        C554   1.271       .  A
Ni553       O556   1.909       .  S
Ni553       O558   1.904       .  S
C554        O564   1.273       .  A
C554       C3464   1.477       .  S
O555       Ni571   1.923       .  S
O555        C561   1.278       .  A
O556        C561   1.275       .  A
C557       C3819   1.467       .  S
O558        C560   1.267       .  A
O559       Ni570   1.913       .  S
C560        O566   1.274       .  A
C560       C3499   1.477       .  S
C561       C3563   1.462       .  S
H562        O563   0.967       .  S
O563       Ni571   1.919       .  S
O563       Ni565   1.916       .  S
O563       Ni570   1.905       .  S
O564       Ni565   1.933       .  S
Ni565       O569   1.927       .  S
Ni565       O567   1.927       .  S
O566       Ni571   1.941       .  S
C568        O569   1.270       .  A
C568       C3480   1.463       .  S
O573       Ni579   1.900       .  S
O573        C594   1.265       .  A
O574       Ni597   1.900       .  S
O574        C583   1.265       .  A
O575       Ni579   1.918       .  S
O575       Ni597   1.913       .  S
O575       Ni591   1.943       .  S
O575        H598   0.966       .  S
C576        O593   1.278       .  A
C576        O585   1.275       .  A
C576       C3448   1.469       .  S
O577       Ni596   1.925       .  S
O577        C583   1.270       .  A
O578       Ni596   1.913       .  S
O578        C580   1.270       .  A
Ni579       O582   1.920       .  S
Ni579       O584   1.907       .  S
C580        O590   1.275       .  A
C580       C3947   1.482       .  S
O581       Ni597   1.913       .  S
O581        C587   1.267       .  A
O582        C587   1.266       .  A
C583       C3611   1.461       .  S
O584        C586   1.273       .  A
O585       Ni596   1.915       .  S
C586        O592   1.279       .  A
C586       C3496   1.476       .  S
C587       C3432   1.466       .  S
H588        O589   0.967       .  S
O589       Ni597   1.905       .  S
O589       Ni591   1.901       .  S
O589       Ni596   1.906       .  S
O590       Ni591   1.939       .  S
Ni591       O595   1.915       .  S
Ni591       O593   1.924       .  S
O592       Ni597   1.956       .  S
C594        O595   1.270       .  A
C594       C3416   1.458       .  S
O599       Ni605   1.908       .  S
O599        C620   1.263       .  A
O600       Ni623   1.904       .  S
O600        C609   1.267       .  A
O601       Ni605   1.909       .  S
O601       Ni623   1.906       .  S
O601       Ni617   1.927       .  S
O601        H624   0.966       .  S
C602        O619   1.277       .  A
C602        O611   1.273       .  A
C602       C3435   1.469       .  S
O603       Ni622   1.923       .  S
O603        C609   1.271       .  A
O604       Ni622   1.909       .  S
O604        C606   1.270       .  A
Ni605       O608   1.912       .  S
Ni605       O610   1.903       .  S
C606        O616   1.275       .  A
C606       C3912   1.481       .  S
O607       Ni623   1.932       .  S
O607        C613   1.278       .  A
O608        C613   1.274       .  A
C609       C3672   1.460       .  S
O610        C612   1.268       .  A
O611       Ni622   1.917       .  S
C612        O618   1.272       .  A
C612       C3576   1.478       .  S
C613       C3451   1.473   1_556  S
H614        O615   0.968       .  S
O615       Ni623   1.923       .  S
O615       Ni617   1.910       .  S
O615       Ni622   1.908       .  S
O616       Ni617   1.941       .  S
Ni617       O621   1.916       .  S
Ni617       O619   1.923       .  S
O618       Ni623   1.940       .  S
C620        O621   1.267       .  A
C620       C3403   1.460       .  S
O625       Ni631   1.910       .  S
O625        C646   1.264       .  A
O626       Ni649   1.909       .  S
O626        C635   1.270       .  A
O627       Ni631   1.905       .  S
O627       Ni649   1.906       .  S
O627       Ni643   1.924       .  S
O627        H650   0.966       .  S
C628        O645   1.276       .  A
C628        O637   1.274       .  A
C628       C3336   1.464       .  S
O629       Ni648   1.930       .  S
O629        C635   1.273       .  A
O630       Ni648   1.921       .  S
O630        C632   1.274       .  A
Ni631       O634   1.913       .  S
Ni631       O636   1.906       .  S
C632        O642   1.277       .  A
C632       C3320   1.486       .  S
O633       Ni649   1.938       .  S
O633        C639   1.280       .  A
O634        C639   1.274       .  A
C635       C3368   1.469       .  S
O636        C638   1.269       .  A
O637       Ni648   1.916       .  S
C638        O644   1.273       .  A
C638       C3387   1.479       .  S
C639       C3355   1.477       .  S
H640        O641   0.967       .  S
O641       Ni649   1.922       .  S
O641       Ni643   1.910       .  S
O641       Ni648   1.906       .  S
O642       Ni643   1.940       .  S
Ni643       O647   1.926       .  S
Ni643       O645   1.917       .  S
O644       Ni649   1.938       .  S
C646        O647   1.270       .  A
C646       C3768   1.466       .  S
O651       Ni657   1.907       .  S
O651        C672   1.266       .  A
O652       Ni675   1.909       .  S
O652        C661   1.268       .  A
O653       Ni657   1.917       .  S
O653       Ni675   1.917       .  S
O653       Ni669   1.936       .  S
O653        H676   0.966       .  S
C654        O671   1.278       .  A
C654        O663   1.275       .  A
C654       C3352   1.476       .  S
O655       Ni674   1.929       .  S
O655        C661   1.270       .  A
O656       Ni674   1.914       .  S
O656        C658   1.270       .  A
Ni657       O660   1.914       .  S
Ni657       O662   1.908       .  S
C658        O668   1.271       .  A
C658       C3272   1.473       .  S
O659       Ni675   1.911       .  S
O659        C665   1.268       .  A
O660        C665   1.266       .  A
C661       C3288   1.470       .  S
O662        C664   1.273       .  A
O663       Ni674   1.919       .  S
C664        O670   1.280       .  A
C664       C3304   1.481       .  S
C665       C3339   1.463       .  S
H666        O667   0.967       .  S
O667       Ni675   1.910       .  S
O667       Ni669   1.907       .  S
O667       Ni674   1.915       .  S
O668       Ni669   1.924       .  S
Ni669       O673   1.912       .  S
Ni669       O671   1.929       .  S
O670       Ni675   1.957       .  S
C672        O673   1.268       .  A
C672       C3707   1.459       .  S
O677       Ni683   1.911       .  S
O677        C698   1.265       .  A
O678       Ni701   1.903       .  S
O678        C687   1.268       .  A
O679       Ni683   1.902       .  S
O679       Ni701   1.907       .  S
O679       Ni695   1.921       .  S
O679        H702   0.966       .  S
C680        O697   1.280   1_556  A
C680        O689   1.277   1_556  A
C680       C3224   1.471       .  S
O681       Ni700   1.931       .  S
O681        C687   1.273       .  A
O682       Ni700   1.916       .  S
O682        C684   1.270       .  A
Ni683       O686   1.910       .  S
Ni683       O688   1.903       .  S
C684        O694   1.273       .  A
C684       C4331   1.479       .  S
O685       Ni701   1.931       .  S
O685        C691   1.278       .  A
O686        C691   1.275       .  A
C687       C3259   1.467       .  S
O688        C690   1.267       .  A
O689       Ni700   1.915       .  S
C690        O696   1.274       .  A
C690       C3384   1.478       .  S
C691       C3240   1.471       .  S
H692        O693   0.967       .  S
O693       Ni701   1.919       .  S
O693       Ni695   1.910       .  S
O693       Ni700   1.905       .  S
O694       Ni695   1.930       .  S
Ni695       O699   1.927       .  S
Ni695       O697   1.930       .  S
O696       Ni701   1.945       .  S
C698        O699   1.271       .  A
C698       C3627   1.472       .  S
O703       Ni709   1.904       .  S
O703        C724   1.263       .  A
O704       Ni727   1.920       .  S
O704        C713   1.271       .  A
O705       Ni709   1.895       .  S
O705       Ni727   1.899       .  S
O705       Ni721   1.925       .  S
O705        H728   0.967       .  S
C706        O723   1.282       .  A
C706        O715   1.280       .  A
C706       C3243   1.468       .  S
O707       Ni726   1.932       .  S
O707        C713   1.273       .  A
O708       Ni726   1.909       .  S
O708        C710   1.269       .  A
Ni709       O712   1.913       .  S
Ni709       O714   1.904       .  S
C710        O720   1.273       .  A
C710       C4379   1.481       .  S
O711       Ni727   1.934       .  S
O711        C717   1.282       .  A
O712        C717   1.277       .  A
C713       C3208   1.473       .  S
O714        C716   1.267       .  A
O715       Ni726   1.924       .  S
C716        O722   1.275       .  A
C716       C3307   1.479       .  S
C717       C3227   1.469       .  S
H718        O719   0.968       .  S
O719       Ni727   1.912       .  S
O719       Ni721   1.903       .  S
O719       Ni726   1.892       .  S
O720       Ni721   1.938       .  S
Ni721       O725   1.930       .  S
Ni721       O723   1.924       .  S
O722       Ni727   1.946       .  S
C724        O725   1.272       .  A
C724       C3595   1.468       .  S
O729       Ni735   1.901       .  S
O729        C750   1.263       .  A
O730       Ni753   1.908       .  S
O730        C739   1.268       .  A
O731       Ni735   1.903       .  S
O731       Ni753   1.899   1_545  S
O731       Ni747   1.925       .  S
O731        H754   0.966       .  S
C732        O749   1.278   1_566  A
C732        O741   1.275       .  A
C732       C3163   1.470   1_565  S
O733       Ni752   1.931       .  S
O733        C739   1.274       .  A
O734       Ni752   1.916       .  S
O734        C736   1.271       .  A
Ni735       O738   1.910       .  S
Ni735       O740   1.908       .  S
C736        O746   1.275   1_565  A
C736       C3144   1.478       .  S
O737       Ni753   1.932       .  S
O737        C743   1.280   1_565  A
O738        C743   1.275       .  A
C739       C3371   1.471       .  S
O740        C742   1.267       .  A
O741       Ni752   1.916   1_556  S
C742        O748   1.272   1_545  A
C742       C3192   1.473       .  S
C743       C3179   1.470       .  S
H744        O745   0.966       .  S
O745       Ni753   1.922       .  S
O745       Ni747   1.912   1_565  S
O745       Ni752   1.905       .  S
O746       Ni747   1.930       .  S
Ni747       O751   1.929       .  S
Ni747       O749   1.926       .  S
O748       Ni753   1.931       .  S
C750        O751   1.271       .  A
C750       C3528   1.465       .  S
O755       Ni761   1.907       .  S
O755        C776   1.264       .  A
O756       Ni779   1.903       .  S
O756        C765   1.269       .  A
O757       Ni761   1.900       .  S
O757       Ni779   1.894   1_545  S
O757       Ni773   1.921       .  S
O757        H780   0.966       .  S
C758        O775   1.276   1_565  A
C758        O767   1.276       .  A
C758       C3176   1.470       .  S
O759       Ni778   1.929       .  S
O759        C765   1.273       .  A
O760       Ni778   1.917       .  S
O760        C762   1.271       .  A
Ni761       O764   1.916       .  S
Ni761       O766   1.905       .  S
C762        O772   1.274   1_565  A
C762       C3112   1.478       .  S
O763       Ni779   1.927       .  S
O763        C769   1.279   1_565  A
O764        C769   1.276       .  A
C765       C3291   1.462       .  S
O766        C768   1.267       .  A
O767       Ni778   1.922       .  S
C768        O774   1.276   1_545  A
C768       C3128   1.480       .  S
C769       C3160   1.469       .  S
H770        O771   0.966       .  S
O771       Ni779   1.923       .  S
O771       Ni773   1.905   1_565  S
O771       Ni778   1.907       .  S
O772       Ni773   1.931       .  S
Ni773       O777   1.912       .  S
Ni773       O775   1.920       .  S
O774       Ni779   1.946       .  S
C776        O777   1.267       .  A
C776       C3483   1.453       .  S
O781       Ni787   1.905       .  S
O781        C802   1.262       .  A
O782       Ni805   1.902       .  S
O782        C791   1.266       .  A
O783       Ni787   1.904       .  S
O783       Ni805   1.901   1_545  S
O783       Ni799   1.924       .  S
O783        H806   0.953       .  S
C784        O801   1.278   1_565  A
C784        O793   1.276       .  A
C784       C3080   1.466       .  S
O785       Ni804   1.928       .  S
O785        C791   1.273       .  A
O786       Ni804   1.918       .  S
O786        C788   1.272       .  A
Ni787       O790   1.914       .  S
Ni787       O792   1.896       .  S
C788        O798   1.274   1_565  A
C788       C4152   1.483       .  S
O789       Ni805   1.925       .  S
O789        C795   1.277   1_565  A
O790        C795   1.275       .  A
C791       C3256   1.459       .  S
O792        C794   1.266       .  A
O793       Ni804   1.917       .  S
C794        O800   1.273   1_545  A
C794       C3195   1.472       .  S
C795       C3096   1.470       .  S
H796        O797   0.973       .  S
O797       Ni805   1.917       .  S
O797       Ni799   1.905   1_565  S
O797       Ni804   1.902       .  S
O798       Ni799   1.933       .  S
Ni799       O803   1.919       .  S
Ni799       O801   1.921       .  S
O800       Ni805   1.938       .  S
C802        O803   1.268       .  A
C802       C3419   1.459       .  S
O807       Ni813   1.905       .  S
O807        C828   1.263       .  A
O808       Ni831   1.919       .  S
O808        C817   1.271       .  A
O809       Ni813   1.902       .  S
O809       Ni831   1.910   1_545  S
O809       Ni825   1.924       .  S
O809        H832   0.967       .  S
C810        O827   1.279   1_565  A
C810        O819   1.280       .  A
C810       C3099   1.468       .  S
O811       Ni830   1.936       .  S
O811        C817   1.273       .  A
O812       Ni830   1.915       .  S
O812        C814   1.270       .  A
Ni813       O816   1.909       .  S
Ni813       O818   1.906       .  S
C814        O824   1.272   1_565  A
C814       C4107   1.483       .  S
O815       Ni831   1.926       .  S
O815        C821   1.278   1_565  A
O816        C821   1.274       .  A
C817       C3211   1.471       .  S
O818        C820   1.269       .  A
O819       Ni830   1.926       .  S
C820        O826   1.276   1_545  A
C820       C3131   1.481       .  S
C821       C3083   1.466       .  S
H822        O823   0.966       .  S
O823       Ni831   1.910       .  S
O823       Ni825   1.904   1_565  S
O823       Ni830   1.902       .  S
O824       Ni825   1.935       .  S
Ni825       O829   1.923       .  S
Ni825       O827   1.920       .  S
O826       Ni831   1.944       .  S
C828        O829   1.269       .  A
C828       C3400   1.461       .  S
O833       Ni839   1.932       .  S
O833        C854   1.274       .  A
O834       Ni857   1.921       .  S
O834        C843   1.269       .  A
O835       Ni839   1.906       .  S
O835       Ni857   1.907   1_545  S
O835       Ni851   1.917       .  S
O835        H858   0.966       .  S
C836        O853   1.279   1_565  A
C836        O845   1.273       .  A
C836       C3035   1.467   1_565  S
O837       Ni856   1.900       .  S
O837        C843   1.263       .  A
O838       Ni856   1.910       .  S
O838        C840   1.269       .  A
Ni839       O842   1.916       .  S
Ni839       O844   1.926       .  S
C840        O850   1.275   1_565  A
C840       C3067   1.481       .  S
O841       Ni857   1.925       .  S
O841        C847   1.279   1_565  A
O842        C847   1.276       .  A
C843       C3003   1.459       .  S
O844        C846   1.273       .  A
O845       Ni856   1.904       .  S
C846        O852   1.274   1_545  A
C846       C2984   1.488       .  S
C847       C3019   1.470       .  S
H848        O849   0.966       .  S
O849       Ni857   1.926       .  S
O849       Ni851   1.899   1_565  S
O849       Ni856   1.902       .  S
O850       Ni851   1.942       .  S
Ni851       O855   1.904       .  S
Ni851       O853   1.933       .  S
O852       Ni857   1.932       .  S
C854        O855   1.269       .  A
C854       C3051   1.467       .  S
O859       Ni865   1.932       .  S
O859        C880   1.272       .  A
O860       Ni883   1.929       .  S
O860        C869   1.270       .  A
O861       Ni865   1.900       .  S
O861       Ni883   1.904   1_545  S
O861       Ni877   1.912       .  S
O861        H884   0.966       .  S
C862        O879   1.280   1_565  A
C862        O871   1.276       .  A
C862       C3016   1.471   1_565  S
O863       Ni882   1.916       .  S
O863        C869   1.266       .  A
O864       Ni882   1.900       .  S
O864        C866   1.267       .  A
Ni865       O868   1.916       .  S
Ni865       O870   1.915       .  S
C866        O876   1.272   1_565  A
C866       C2968   1.474       .  S
O867       Ni883   1.927       .  S
O867        C873   1.281   1_565  A
O868        C873   1.278       .  A
C869       C2939   1.467       .  S
O870        C872   1.270       .  A
O871       Ni882   1.914       .  S
C872        O878   1.273   1_545  A
C872       C2920   1.478       .  S
C873       C3032   1.466       .  S
H874        O875   0.966       .  S
O875       Ni883   1.917       .  S
O875       Ni877   1.905   1_565  S
O875       Ni882   1.898       .  S
O876       Ni877   1.939       .  S
Ni877       O881   1.909       .  S
Ni877       O879   1.930       .  S
O878       Ni883   1.930       .  S
C880        O881   1.269       .  A
C880       C2952   1.468       .  S
O885       Ni891   1.924       .  S
O885        C906   1.270       .  A
O886       Ni909   1.918       .  S
O886        C895   1.272       .  A
O887       Ni891   1.908       .  S
O887       Ni909   1.908   1_545  S
O887       Ni903   1.905       .  S
O887        H910   0.966       .  S
C888        O905   1.267       .  A
C888        O897   1.266   1_545  A
C888       C2888   1.462       .  S
O889       Ni908   1.905       .  S
O889        C895   1.266       .  A
O890       Ni908   1.906       .  S
O890        C892   1.271       .  A
Ni891       O894   1.907       .  S
Ni891       O896   1.914       .  S
C892        O902   1.281   1_565  A
C892       C3064   1.476       .  S
O893       Ni909   1.932       .  S
O893        C899   1.279   1_565  A
O894        C899   1.273       .  A
C895       C2859   1.465       .  S
O896        C898   1.271       .  A
O897       Ni908   1.917       .  S
C898        O904   1.274   1_545  A
C898       C3115   1.478       .  S
C899       C2875   1.471       .  S
H900        O901   0.966       .  S
O901       Ni909   1.938       .  S
O901       Ni903   1.915   1_565  S
O901       Ni908   1.915       .  S
O902       Ni903   1.959       .  S
Ni903       O907   1.905       .  S
Ni903       O905   1.912       .  S
O904       Ni909   1.935       .  S
C906        O907   1.266       .  A
C906       C2907   1.465       .  S
O911       Ni917   1.929       .  S
O911        C932   1.272       .  A
O912       Ni935   1.917       .  S
O912        C921   1.268       .  A
O913       Ni917   1.897       .  S
O913       Ni935   1.897   1_545  S
O913       Ni929   1.911       .  S
O913        H936   0.967       .  S
C914        O931   1.279   1_565  A
C914        O923   1.275       .  A
C914       C2872   1.470       .  S
O915       Ni934   1.911       .  S
O915        C921   1.265       .  A
O916       Ni934   1.906       .  S
O916        C918   1.270       .  A
Ni917       O920   1.921       .  S
Ni917       O922   1.909       .  S
C918        O928   1.273   1_565  A
C918       C2971   1.478       .  S
O919       Ni935   1.923       .  S
O919        C925   1.282   1_565  A
O920        C925   1.278       .  A
C921       C2827   1.465       .  S
O922        C924   1.268       .  A
O923       Ni934   1.913       .  S
C924        O930   1.272   1_545  A
C924       C3147   1.477       .  S
C925       C2891   1.465   1_556  S
H926        O927   0.966       .  S
O927       Ni935   1.923       .  S
O927       Ni929   1.908   1_565  S
O927       Ni934   1.902       .  S
O928       Ni929   1.938       .  S
Ni929       O933   1.915       .  S
Ni929       O931   1.931       .  S
O930       Ni935   1.933       .  S
C932        O933   1.269       .  A
C932       C2843   1.464       .  S
O937       Ni943   1.922       .  S
O937        C958   1.271       .  A
O938       Ni961   1.916       .  S
O938        C947   1.268       .  A
O939       Ni943   1.902       .  S
O939       Ni961   1.906       .  S
O939       Ni955   1.923       .  S
O939        H962   0.967       .  S
C940        O957   1.279       .  A
C940        O949   1.274       .  A
C940       C2792   1.465       .  S
O941       Ni960   1.897       .  S
O941        C947   1.262       .  A
O942       Ni960   1.908       .  S
O942        C944   1.268       .  A
Ni943       O946   1.914       .  S
Ni943       O948   1.918       .  S
C944        O954   1.274       .  A
C944       C2808   1.478       .  S
O945       Ni961   1.931       .  S
O945        C951   1.280       .  A
O946        C951   1.275       .  A
C947       C2760   1.456       .  S
O948        C950   1.271       .  A
O949       Ni960   1.904       .  S
C950        O956   1.272       .  A
C950       C3512   1.480       .  S
C951       C2779   1.473       .  S
H952        O953   0.966       .  S
O953       Ni961   1.927       .  S
O953       Ni955   1.895       .  S
O953       Ni960   1.899       .  S
O954       Ni955   1.938       .  S
Ni955       O959   1.905       .  S
Ni955       O957   1.931       .  S
O956       Ni961   1.931       .  S
C958        O959   1.267       .  A
C958       C2904   1.462       .  S
O963       Ni969   1.925       .  S
O963        C984   1.271       .  A
O964       Ni987   1.921       .  S
O964        C973   1.267       .  A
O965       Ni969   1.891       .  S
O965       Ni987   1.900       .  S
O965       Ni981   1.911       .  S
O965        H988   0.967       .  S
C966        O983   1.281       .  A
C966        O975   1.277       .  A
C966       C2776   1.471       .  S
O967       Ni986   1.917       .  S
O967        C973   1.267       .  A
O968       Ni986   1.898       .  S
O968        C970   1.266       .  A
Ni969       O972   1.915       .  S
Ni969       O974   1.913       .  S
C970        O980   1.271       .  A
C970       C2744   1.475       .  S
O971       Ni987   1.928       .  S
O971        C977   1.281       .  A
O972        C977   1.278       .  A
C973       C2731   1.462       .  S
O974        C976   1.270       .  A
O975       Ni986   1.917       .  S
C976        O982   1.272       .  A
C976       C3467   1.477       .  S
C977       C2795   1.466       .  S
H978        O979   0.967       .  S
O979       Ni987   1.914       .  S
O979       Ni981   1.906       .  S
O979       Ni986   1.894       .  S
O980       Ni981   1.938       .  S
Ni981       O985   1.915       .  S
Ni981       O983   1.930       .  S
O982       Ni987   1.930       .  S
C984        O985   1.270       .  A
C984       C2840   1.467       .  S
O989       Ni995   1.935       .  S
O989       C1010   1.273       .  A
O990      Ni1013   1.918       .  S
O990        C999   1.269       .  A
O991       Ni995   1.916       .  S
O991      Ni1013   1.910       .  S
O991      Ni1007   1.907       .  S
O991       H1014   0.968       .  S
C992       O1009   1.267       .  A
C992       O1001   1.266       .  A
C992       C2712   1.468       .  S
O993      Ni1012   1.907       .  S
O993        C999   1.267       .  A
O994      Ni1012   1.910       .  S
O994        C996   1.274       .  A
Ni995       O998   1.920       .  S
Ni995      O1000   1.919       .  S
C996       O1006   1.279       .  A
C996       C2811   1.479       .  S
O997      Ni1013   1.918       .  S
O997       C1003   1.274       .  A
O998       C1003   1.273       .  A
C999       C2680   1.467       .  S
O1000      C1002   1.272       .  A
O1001     Ni1012   1.919       .  S
C1002      O1008   1.276       .  A
C1002      C2664   1.482       .  S
C1003      C2696   1.468       .  S
H1004      O1005   0.966       .  S
O1005     Ni1013   1.936       .  S
O1005     Ni1007   1.914       .  S
O1005     Ni1012   1.919       .  S
O1006     Ni1007   1.956       .  S
Ni1007     O1011   1.894       .  S
Ni1007     O1009   1.917       .  S
O1008     Ni1013   1.938       .  S
C1010      O1011   1.264       .  A
C1010      C3048   1.464       .  S
O1015     Ni1021   1.943       .  S
O1015      C1036   1.275       .  A
O1016     Ni1039   1.918       .  S
O1016      C1025   1.268       .  A
O1017     Ni1021   1.901       .  S
O1017     Ni1039   1.902       .  S
O1017     Ni1033   1.908       .  S
O1017      H1040   0.968       .  S
C1018      O1035   1.279       .  A
C1018      O1027   1.273       .  A
C1018      C2699   1.469       .  S
O1019     Ni1038   1.912       .  S
O1019      C1025   1.265       .  A
O1020     Ni1038   1.902       .  S
O1020      C1022   1.268       .  A
Ni1021     O1024   1.930       .  S
Ni1021     O1026   1.912       .  S
C1022      O1032   1.273       .  A
C1022      C2747   1.471       .  S
O1023     Ni1039   1.921       .  S
O1023      C1029   1.280       .  A
O1024      C1029   1.279       .  A
C1025      C2651   1.466       .  S
O1026      C1028   1.269       .  A
O1027     Ni1038   1.913       .  S
C1028      O1034   1.272       .  A
C1028      C2635   1.478       .  S
C1029      C2715   1.471   1_556  S
H1030      O1031   0.966       .  S
O1031     Ni1039   1.924       .  S
O1031     Ni1033   1.907       .  S
O1031     Ni1038   1.905       .  S
O1032     Ni1033   1.935       .  S
Ni1033     O1037   1.907       .  S
Ni1033     O1035   1.928       .  S
O1034     Ni1039   1.932       .  S
C1036      O1037   1.268       .  A
C1036      C2955   1.467       .  S
O1041     Ni1047   1.932       .  S
O1041      C1062   1.272       .  A
O1042     Ni1065   1.920       .  S
O1042      C1051   1.270       .  A
O1043     Ni1047   1.899       .  S
O1043     Ni1065   1.896       .  S
O1043     Ni1059   1.905       .  S
O1043      H1066   0.968       .  S
C1044      O1061   1.276       .  A
C1044      O1053   1.273       .  A
C1044      C2568   1.471       .  S
O1045     Ni1064   1.913       .  S
O1045      C1051   1.266       .  A
O1046     Ni1064   1.906       .  S
O1046      C1048   1.269       .  A
Ni1047     O1050   1.919       .  S
Ni1047     O1052   1.913       .  S
C1048      O1058   1.275       .  A
C1048      C2619   1.479       .  S
O1049     Ni1065   1.925       .  S
O1049      C1055   1.283       .  A
O1050      C1055   1.279       .  A
C1051      C2856   1.466       .  S
O1052      C1054   1.270       .  A
O1053     Ni1064   1.917       .  S
C1054      O1060   1.274       .  A
C1054      C3323   1.488       .  S
C1055      C2584   1.466       .  S
H1056      O1057   0.966       .  S
O1057     Ni1065   1.932       .  S
O1057     Ni1059   1.912       .  S
O1057     Ni1064   1.909       .  S
O1058     Ni1059   1.944       .  S
Ni1059     O1063   1.905       .  S
Ni1059     O1061   1.925       .  S
O1060     Ni1065   1.943       .  S
C1062      O1063   1.268       .  A
C1062      C2600   1.463       .  S
O1067     Ni1073   1.929       .  S
O1067      C1088   1.271   1_556  A
O1068     Ni1091   1.911       .  S
O1068      C1077   1.267       .  A
O1069     Ni1073   1.916       .  S
O1069     Ni1091   1.905       .  S
O1069     Ni1085   1.907   1_556  S
O1069      H1092   0.967       .  S
C1070      O1087   1.268       .  A
C1070      O1079   1.267       .  A
C1070      C2587   1.471       .  S
O1071     Ni1090   1.906       .  S
O1071      C1077   1.265   1_554  A
O1072     Ni1090   1.905       .  S
O1072      C1074   1.273       .  A
Ni1073     O1076   1.918       .  S
Ni1073     O1078   1.916       .  S
C1074      O1084   1.279       .  A
C1074      C2555   1.474       .  S
O1075     Ni1091   1.921       .  S
O1075      C1081   1.275       .  A
O1076      C1081   1.273       .  A
C1077      C2824   1.461       .  S
O1078      C1080   1.271       .  A
O1079     Ni1090   1.915       .  S
C1080      O1086   1.271       .  A
C1080      C3275   1.475       .  S
C1081      C2571   1.469       .  S
H1082      O1083   0.966       .  S
O1083     Ni1091   1.938   1_554  S
O1083     Ni1085   1.918       .  S
O1083     Ni1090   1.917       .  S
O1084     Ni1085   1.953       .  S
Ni1085     O1089   1.902       .  S
Ni1085     O1087   1.919       .  S
O1086     Ni1091   1.926       .  S
C1088      O1089   1.267       .  A
C1088      C2536   1.466       .  S
O1093     Ni1099   1.930       .  S
O1093      C1114   1.273       .  A
O1094     Ni1117   1.920       .  S
O1094      C1103   1.267       .  A
O1095     Ni1099   1.907       .  S
O1095     Ni1117   1.911       .  S
O1095     Ni1111   1.921       .  S
O1095      H1118   0.968       .  S
C1096      O1113   1.279       .  A
C1096      O1105   1.275       .  A
C1096      C2491   1.468   1_554  S
O1097     Ni1116   1.904       .  S
O1097      C1103   1.264       .  A
O1098     Ni1116   1.907       .  S
O1098      C1100   1.267       .  A
Ni1099     O1102   1.922       .  S
Ni1099     O1104   1.920       .  S
C1100      O1110   1.273       .  A
C1100      C2552   1.476       .  S
O1101     Ni1117   1.914       .  S
O1101      C1107   1.275       .  A
O1102      C1107   1.275       .  A
C1103      C3000   1.461       .  S
O1104      C1106   1.272       .  A
O1105     Ni1116   1.908       .  S
C1106      O1112   1.274       .  A
C1106      C2475   1.484       .  S
C1107      C2507   1.466       .  S
H1108      O1109   0.966       .  S
O1109     Ni1117   1.921       .  S
O1109     Ni1111   1.899       .  S
O1109     Ni1116   1.903       .  S
O1110     Ni1111   1.938       .  S
Ni1111     O1115   1.905       .  S
Ni1111     O1113   1.930       .  S
O1112     Ni1117   1.936       .  S
C1114      O1115   1.268       .  A
C1114      C2523   1.464       .  S
O1119     Ni1125   1.934       .  S
O1119      C1140   1.273       .  A
O1120     Ni1143   1.937       .  S
O1120      C1129   1.271       .  A
O1121     Ni1125   1.898       .  S
O1121     Ni1143   1.905       .  S
O1121     Ni1137   1.912       .  S
O1121      H1144   0.968       .  S
C1122      O1139   1.281       .  A
C1122      O1131   1.278       .  A
C1122      C2504   1.467       .  S
O1123     Ni1142   1.910       .  S
O1123      C1129   1.265       .  A
O1124     Ni1142   1.899       .  S
O1124      C1126   1.267       .  A
Ni1125     O1128   1.923       .  S
Ni1125     O1130   1.914       .  S
C1126      O1136   1.274       .  A
C1126      C2616   1.482       .  S
O1127     Ni1143   1.923       .  S
O1127      C1133   1.281       .  A
O1128      C1133   1.280       .  A
C1129      C2936   1.472       .  S
O1130      C1132   1.269       .  A
O1131     Ni1142   1.920       .  S
C1132      O1138   1.274       .  A
C1132      C2443   1.481       .  S
C1133      C2488   1.466       .  S
H1134      O1135   0.967       .  S
O1135     Ni1143   1.920       .  S
O1135     Ni1137   1.899       .  S
O1135     Ni1142   1.892       .  S
O1136     Ni1137   1.946       .  S
Ni1137     O1141   1.913       .  S
Ni1137     O1139   1.924       .  S
O1138     Ni1143   1.934       .  S
C1140      O1141   1.269       .  A
C1140      C2456   1.466       .  S
O1145     Ni1151   1.933       .  S
O1145      C1166   1.274       .  A
O1146     Ni1169   1.910       .  S
O1146      C1155   1.266       .  A
O1147     Ni1151   1.910       .  S
O1147     Ni1169   1.910       .  S
O1147     Ni1163   1.917       .  S
O1147      H1170   0.967       .  S
C1148      O1165   1.277       .  A
C1148      O1157   1.275       .  A
C1148      C2395   1.466       .  S
O1149     Ni1168   1.908       .  S
O1149      C1155   1.266       .  A
O1150     Ni1168   1.913       .  S
O1150      C1152   1.268       .  A
Ni1151     O1154   1.922       .  S
Ni1151     O1156   1.921       .  S
C1152      O1162   1.275       .  A
C1152      C2427   1.484       .  S
O1153     Ni1169   1.913       .  S
O1153      C1159   1.273       .  A
O1154      C1159   1.275       .  A
C1155      C2763   1.453       .  S
O1156      C1158   1.273       .  A
O1157     Ni1168   1.915       .  S
C1158      O1164   1.274       .  A
C1158      C3752   1.485       .  S
C1159      C2408   1.466       .  S
H1160      O1161   0.966       .  S
O1161     Ni1169   1.919       .  S
O1161     Ni1163   1.894       .  S
O1161     Ni1168   1.903       .  S
O1162     Ni1163   1.943       .  S
Ni1163     O1167   1.893       .  S
Ni1163     O1165   1.923       .  S
O1164     Ni1169   1.939       .  S
C1166      O1167   1.265       .  A
C1166      C2539   1.460       .  S
O1171     Ni1177   1.933       .  S
O1171      C1192   1.272       .  A
O1172     Ni1195   1.923       .  S
O1172      C1181   1.269       .  A
O1173     Ni1177   1.894       .  S
O1173     Ni1195   1.902       .  S
O1173     Ni1189   1.913       .  S
O1173      H1196   0.967       .  S
C1174      O1191   1.282       .  A
C1174      O1183   1.278       .  A
C1174      C2411   1.466       .  S
O1175     Ni1194   1.907       .  S
O1175      C1181   1.263       .  A
O1176     Ni1194   1.900       .  S
O1176      C1178   1.265       .  A
Ni1177     O1180   1.927       .  S
Ni1177     O1182   1.907       .  S
C1178      O1188   1.273       .  A
C1178      C2376   1.476       .  S
O1179     Ni1195   1.917       .  S
O1179      C1185   1.280       .  A
O1180      C1185   1.279       .  A
C1181      C2728   1.459       .  S
O1182      C1184   1.269       .  A
O1183     Ni1194   1.912       .  S
C1184      O1190   1.275       .  A
C1184      C3691   1.482       .  S
C1185      C2392   1.466       .  S
H1186      O1187   0.966       .  S
O1187     Ni1195   1.914       .  S
O1187     Ni1189   1.892       .  S
O1187     Ni1194   1.889       .  S
O1188     Ni1189   1.943       .  S
Ni1189     O1193   1.902       .  S
Ni1189     O1191   1.932       .  S
O1190     Ni1195   1.942       .  S
C1192      O1193   1.266       .  A
C1192      C2603   1.458       .  S
O1197     Ni1203   1.932       .  S
O1197      C1218   1.272       .  A
O1198     Ni1221   1.916       .  S
O1198      C1207   1.267       .  A
O1199     Ni1203   1.900       .  S
O1199     Ni1221   1.900       .  S
O1199     Ni1215   1.913       .  S
O1199      H1222   0.965       .  S
C1200      O1217   1.281       .  A
C1200      O1209   1.275       .  A
C1200      C2344   1.472       .  S
O1201     Ni1220   1.911       .  S
O1201      C1207   1.265       .  A
O1202     Ni1220   1.905       .  S
O1202      C1204   1.269       .  A
Ni1203     O1206   1.926       .  S
Ni1203     O1208   1.908       .  S
C1204      O1214   1.273       .  A
C1204      C2379   1.477       .  S
O1205     Ni1221   1.917       .  S
O1205      C1211   1.278       .  A
O1206      C1211   1.279       .  A
C1207      C2683   1.465       .  S
O1208      C1210   1.269       .  A
O1209     Ni1220   1.913       .  S
C1210      O1216   1.271       .  A
C1210      C2331   1.477       .  S
C1211      C2360   1.466       .  S
H1212      O1213   0.966       .  S
O1213     Ni1221   1.923       .  S
O1213     Ni1215   1.906       .  S
O1213     Ni1220   1.903       .  S
O1214     Ni1215   1.937       .  S
Ni1215     O1219   1.914       .  S
Ni1215     O1217   1.934       .  S
O1216     Ni1221   1.933       .  S
C1218      O1219   1.270       .  A
C1218      C2459   1.467       .  S
O1223     Ni1229   1.924       .  S
O1223      C1244   1.269   1_556  A
O1224     Ni1247   1.915       .  S
O1224      C1233   1.269       .  A
O1225     Ni1229   1.913       .  S
O1225     Ni1247   1.908       .  S
O1225     Ni1241   1.908   1_556  S
O1225      H1248   0.966       .  S
C1226      O1243   1.269       .  A
C1226      O1235   1.267       .  A
C1226      C2363   1.466       .  S
O1227     Ni1246   1.911       .  S
O1227      C1233   1.267   1_554  A
O1228     Ni1246   1.911       .  S
O1228      C1230   1.274       .  A
Ni1229     O1232   1.914       .  S
Ni1229     O1234   1.913       .  S
C1230      O1240   1.281       .  A
C1230      C2424   1.483       .  S
O1231     Ni1247   1.924       .  S
O1231      C1237   1.276       .  A
O1232      C1237   1.274       .  A
C1233      C2648   1.464       .  S
O1234      C1236   1.270       .  A
O1235     Ni1246   1.919       .  S
C1236      O1242   1.274       .  A
C1236      C2312   1.479       .  S
C1237      C2347   1.471       .  S
H1238      O1239   0.967       .  S
O1239     Ni1247   1.935   1_554  S
O1239     Ni1241   1.916       .  S
O1239     Ni1246   1.919       .  S
O1240     Ni1241   1.961       .  S
Ni1241     O1245   1.912       .  S
Ni1241     O1243   1.913       .  S
O1242     Ni1247   1.934       .  S
C1244      O1245   1.269       .  A
C1244      C2520   1.469       .  S
O1249     Ni1255   1.907       .  S
O1249      C1270   1.265       .  A
O1250     Ni1273   1.916       .  S
O1250      C1259   1.271       .  A
O1251     Ni1255   1.893       .  S
O1251     Ni1273   1.899       .  S
O1251     Ni1267   1.924       .  S
O1251      H1274   0.966       .  S
C1252      O1269   1.283       .  A
C1252      O1261   1.279       .  A
C1252      C2248   1.473   1_554  S
O1253     Ni1272   1.923       .  S
O1253      C1259   1.268       .  A
O1254     Ni1272   1.902       .  S
O1254      C1256   1.266       .  A
Ni1255     O1258   1.911       .  S
Ni1255     O1260   1.904       .  S
C1256      O1266   1.269       .  A
C1256      C4459   1.468       .  S
O1257     Ni1273   1.933       .  S
O1257      C1263   1.281       .  A
O1258      C1263   1.276       .  A
C1259      C2283   1.462       .  S
O1260      C1262   1.268       .  A
O1261     Ni1272   1.922       .  S
C1262      O1268   1.277       .  A
C1262      C2296   1.479       .  S
C1263      C2264   1.468       .  S
H1264      O1265   0.967       .  S
O1265     Ni1273   1.916       .  S
O1265     Ni1267   1.898       .  S
O1265     Ni1272   1.897       .  S
O1266     Ni1267   1.925       .  S
Ni1267     O1271   1.917       .  S
Ni1267     O1269   1.932       .  S
O1268     Ni1273   1.945       .  S
C1270      O1271   1.269       .  A
C1270      C2232   1.462       .  S
O1275     Ni1281   1.911       .  S
O1275      C1296   1.265       .  A
O1276     Ni1299   1.906       .  S
O1276      C1285   1.268       .  A
O1277     Ni1281   1.904       .  S
O1277     Ni1299   1.905       .  S
O1277     Ni1293   1.924       .  S
O1277      H1300   0.966       .  S
C1278      O1295   1.277       .  A
C1278      O1287   1.274       .  A
C1278      C2267   1.467       .  S
O1279     Ni1298   1.926       .  S
O1279      C1285   1.271       .  A
O1280     Ni1298   1.916       .  S
O1280      C1282   1.272       .  A
Ni1281     O1284   1.917       .  S
Ni1281     O1286   1.903       .  S
C1282      O1292   1.274       .  A
C1282      C4507   1.480       .  S
O1283     Ni1299   1.930       .  S
O1283      C1289   1.278       .  A
O1284      C1289   1.276       .  A
C1285      C2200   1.464       .  S
O1286      C1288   1.268       .  A
O1287     Ni1298   1.914       .  S
C1288      O1294   1.273       .  A
C1288      C2216   1.477       .  S
C1289      C2251   1.475       .  S
H1290      O1291   0.966       .  S
O1291     Ni1299   1.918       .  S
O1291     Ni1293   1.912       .  S
O1291     Ni1298   1.906       .  S
O1292     Ni1293   1.934       .  S
Ni1293     O1297   1.927       .  S
Ni1293     O1295   1.922       .  S
O1294     Ni1299   1.939       .  S
C1296      O1297   1.270       .  A
C1296      C2184   1.467       .  S
O1301     Ni1307   1.903       .  S
O1301      C1322   1.262       .  A
O1302     Ni1325   1.901       .  S
O1302      C1311   1.268       .  A
O1303     Ni1307   1.906       .  S
O1303     Ni1325   1.900       .  S
O1303     Ni1319   1.919       .  S
O1303      H1326   0.967       .  S
C1304      O1321   1.273       .  A
C1304      O1313   1.274       .  A
C1304      C2136   1.469       .  S
O1305     Ni1324   1.933       .  S
O1305      C1311   1.273       .  A
O1306     Ni1324   1.913       .  S
O1306      C1308   1.271       .  A
Ni1307     O1310   1.908       .  S
Ni1307     O1312   1.903       .  S
C1308      O1318   1.273       .  A
C1308      C2328   1.475       .  S
O1309     Ni1325   1.927       .  S
O1309      C1315   1.278       .  A
O1310      C1315   1.272       .  A
C1311      C2168   1.467       .  S
O1312      C1314   1.268       .  A
O1313     Ni1324   1.925       .  S
C1314      O1320   1.275       .  A
C1314      C2299   1.481       .  S
C1315      C2155   1.466       .  S
H1316      O1317   0.966       .  S
O1317     Ni1325   1.925       .  S
O1317     Ni1319   1.916       .  S
O1317     Ni1324   1.915       .  S
O1318     Ni1319   1.931       .  S
Ni1319     O1323   1.918       .  S
Ni1319     O1321   1.914       .  S
O1320     Ni1325   1.946       .  S
C1322      O1323   1.266       .  A
C1322      C2120   1.456       .  S
O1327     Ni1333   1.922       .  S
O1327      C1348   1.266       .  A
O1328     Ni1351   1.903       .  S
O1328      C1337   1.268       .  A
O1329     Ni1333   1.908       .  S
O1329     Ni1351   1.904       .  S
O1329     Ni1345   1.912       .  S
O1329      H1352   0.966       .  S
C1330      O1347   1.275       .  A
C1330      O1339   1.274       .  A
C1330      C2152   1.467       .  S
O1331     Ni1350   1.934       .  S
O1331      C1337   1.273       .  A
O1332     Ni1350   1.916       .  S
O1332      C1334   1.272       .  A
Ni1333     O1336   1.923       .  S
Ni1333     O1338   1.896       .  S
C1334      O1344   1.273       .  A
C1334      C2315   1.479       .  S
O1335     Ni1351   1.918       .  S
O1335      C1341   1.276       .  A
O1336      C1341   1.275       .  A
C1337      C2104   1.468       .  S
O1338      C1340   1.265       .  A
O1339     Ni1350   1.921       .  S
C1340      O1346   1.274       .  A
C1340      C2219   1.473       .  S
C1341      C2139   1.470       .  S
H1342      O1343   0.966       .  S
O1343     Ni1351   1.918       .  S
O1343     Ni1345   1.911       .  S
O1343     Ni1350   1.911       .  S
O1344     Ni1345   1.932       .  S
Ni1345     O1349   1.914       .  S
Ni1345     O1347   1.915       .  S
O1346     Ni1351   1.943       .  S
C1348      O1349   1.266       .  A
C1348      C2091   1.458       .  S
O1353     Ni1359   1.910       .  S
O1353      C1374   1.264       .  A
O1354     Ni1377   1.903       .  S
O1354      C1363   1.267       .  A
O1355     Ni1359   1.895       .  S
O1355     Ni1377   1.899       .  S
O1355     Ni1371   1.916       .  S
O1355      H1378   0.966       .  S
C1356      O1373   1.281       .  A
C1356      O1365   1.278       .  A
C1356      C2043   1.463       .  S
O1357     Ni1376   1.934       .  S
O1357      C1363   1.271       .  A
O1358     Ni1376   1.909       .  S
O1358      C1360   1.268       .  A
Ni1359     O1362   1.919       .  S
Ni1359     O1364   1.894       .  S
C1360      O1370   1.272       .  A
C1360      C3864   1.475       .  S
O1361     Ni1377   1.923       .  S
O1361      C1367   1.279       .  A
O1362      C1367   1.277       .  A
C1363      C2280   1.460       .  S
O1364      C1366   1.264       .  A
O1365     Ni1376   1.921       .  S
C1366      O1372   1.273       .  A
C1366      C2075   1.473       .  S
C1367      C2056   1.468       .  S
H1368      O1369   0.967       .  S
O1369     Ni1377   1.909       .  S
O1369     Ni1371   1.904       .  S
O1369     Ni1376   1.900       .  S
O1370     Ni1371   1.929       .  S
Ni1371     O1375   1.930       .  S
Ni1371     O1373   1.919       .  S
O1372     Ni1377   1.943       .  S
C1374      O1375   1.270       .  A
C1374      C2024   1.467       .  S
O1379     Ni1385   1.904       .  S
O1379      C1400   1.263       .  A
O1380     Ni1403   1.896       .  S
O1380      C1389   1.267       .  A
O1381     Ni1385   1.898       .  S
O1381     Ni1403   1.895       .  S
O1381     Ni1397   1.922       .  S
O1381      H1404   0.966       .  S
C1382      O1399   1.280       .  A
C1382      O1391   1.276       .  A
C1382      C2059   1.468       .  S
O1383     Ni1402   1.934       .  S
O1383      C1389   1.274       .  A
O1384     Ni1402   1.913       .  S
O1384      C1386   1.270       .  A
Ni1385     O1388   1.907       .  S
Ni1385     O1390   1.903       .  S
C1386      O1396   1.274       .  A
C1386      C3851   1.479       .  S
O1387     Ni1403   1.928       .  S
O1387      C1393   1.277       .  A
O1388      C1393   1.274       .  A
C1389      C2203   1.464       .  S
O1390      C1392   1.268       .  A
O1391     Ni1402   1.922       .  S
C1392      O1398   1.275       .  A
C1392      C2008   1.481       .  S
C1393      C2040   1.463       .  S
H1394      O1395   0.967       .  S
O1395     Ni1403   1.915       .  S
O1395     Ni1397   1.909       .  S
O1395     Ni1402   1.902       .  S
O1396     Ni1397   1.938       .  S
Ni1397     O1401   1.917       .  S
Ni1397     O1399   1.922       .  S
O1398     Ni1403   1.945       .  S
C1400      O1401   1.270       .  A
C1400      C1992   1.461       .  S
O1405     Ni1411   1.907       .  S
O1405      C1426   1.263       .  A
O1406     Ni1429   1.901       .  S
O1406      C1415   1.268       .  A
O1407     Ni1411   1.910       .  S
O1407     Ni1429   1.909       .  S
O1407     Ni1423   1.925       .  S
O1407      H1430   0.967       .  S
C1408      O1425   1.276   1_556  A
C1408      O1417   1.273   1_556  A
C1408      C1963   1.463       .  S
O1409     Ni1428   1.925       .  S
O1409      C1415   1.271       .  A
O1410     Ni1428   1.920       .  S
O1410      C1412   1.271       .  A
Ni1411     O1414   1.910       .  S
Ni1411     O1416   1.902       .  S
C1412      O1422   1.274       .  A
C1412      C2632   1.481       .  S
O1413     Ni1429   1.935       .  S
O1413      C1419   1.278       .  A
O1414      C1419   1.272       .  A
C1415      C2171   1.462       .  S
O1416      C1418   1.269       .  A
O1417     Ni1428   1.912       .  S
C1418      O1424   1.273       .  A
C1418      C2072   1.474       .  S
C1419      C1979   1.477       .  S
H1420      O1421   0.968       .  S
O1421     Ni1429   1.919       .  S
O1421     Ni1423   1.906       .  S
O1421     Ni1428   1.911       .  S
O1422     Ni1423   1.929       .  S
Ni1423     O1427   1.917       .  S
Ni1423     O1425   1.921       .  S
O1424     Ni1429   1.936       .  S
C1426      O1427   1.267       .  A
C1426      C1947   1.459       .  S
O1431     Ni1437   1.906       .  S
O1431      C1452   1.265       .  A
O1432     Ni1455   1.905       .  S
O1432      C1441   1.266       .  A
O1433     Ni1437   1.920       .  S
O1433     Ni1455   1.917       .  S
O1433     Ni1449   1.936       .  S
O1433      H1456   0.966       .  S
C1434      O1451   1.277       .  A
C1434      O1443   1.273       .  A
C1434      C1976   1.476       .  S
O1435     Ni1454   1.932       .  S
O1435      C1441   1.271       .  A
O1436     Ni1454   1.915       .  S
O1436      C1438   1.272       .  A
Ni1437     O1440   1.914       .  S
Ni1437     O1442   1.908       .  S
C1438      O1448   1.274       .  A
C1438      C2667   1.482       .  S
O1439     Ni1455   1.910       .  S
O1439      C1445   1.267       .  A
O1440      C1445   1.265       .  A
C1441      C2107   1.469       .  S
O1442      C1444   1.272       .  A
O1443     Ni1454   1.916       .  S
C1444      O1450   1.279       .  A
C1444      C2011   1.476       .  S
C1445      C1960   1.460       .  S
H1446      O1447   0.968       .  S
O1447     Ni1455   1.910       .  S
O1447     Ni1449   1.915       .  S
O1447     Ni1454   1.916       .  S
O1448     Ni1449   1.937       .  S
Ni1449     O1453   1.917       .  S
Ni1449     O1451   1.928       .  S
O1450     Ni1455   1.955       .  S
C1452      O1453   1.270       .  A
C1452      C1928   1.463       .  S
O1457     Ni1463   1.901   1_554  S
O1457      C1478   1.265       .  A
O1458     Ni1481   1.901       .  S
O1458      C1467   1.267       .  A
O1459     Ni1463   1.914       .  S
O1459     Ni1481   1.916       .  S
O1459     Ni1475   1.944   1_556  S
O1459      H1482   0.966       .  S
C1460      O1477   1.279       .  A
C1460      O1469   1.275       .  A
C1460      C1880   1.475       .  S
O1461     Ni1480   1.930       .  S
O1461      C1467   1.272   1_554  A
O1462     Ni1480   1.920       .  S
O1462      C1464   1.272       .  A
Ni1463     O1466   1.909       .  S
Ni1463     O1468   1.903       .  S
C1464      O1474   1.272       .  A
C1464      C4264   1.481       .  S
O1465     Ni1481   1.918       .  S
O1465      C1471   1.267       .  A
O1466      C1471   1.265       .  A
C1467      C1896   1.465       .  S
O1468      C1470   1.274       .  A
O1469     Ni1480   1.916       .  S
C1470      O1476   1.281       .  A
C1470      C1915   1.477       .  S
C1471      C1864   1.467       .  S
H1472      O1473   0.967       .  S
O1473     Ni1481   1.906   1_554  S
O1473     Ni1475   1.903       .  S
O1473     Ni1480   1.911       .  S
O1474     Ni1475   1.930       .  S
Ni1475     O1479   1.915       .  S
Ni1475     O1477   1.932       .  S
O1476     Ni1481   1.959       .  S
C1478      O1479   1.269       .  A
C1478      C2235   1.458       .  S
O1483     Ni1489   1.905       .  S
O1483      C1504   1.263       .  A
O1484     Ni1507   1.907       .  S
O1484      C1493   1.268       .  A
O1485     Ni1489   1.898       .  S
O1485     Ni1507   1.908       .  S
O1485     Ni1501   1.929       .  S
O1485      H1508   0.966       .  S
C1486      O1503   1.282       .  A
C1486      O1495   1.278       .  A
C1486      C1867   1.466       .  S
O1487     Ni1506   1.928       .  S
O1487      C1493   1.270       .  A
O1488     Ni1506   1.906       .  S
O1488      C1490   1.268       .  A
Ni1489     O1492   1.913       .  S
Ni1489     O1494   1.899       .  S
C1490      O1500   1.273       .  A
C1490      C4235   1.478       .  S
O1491     Ni1507   1.935       .  S
O1491      C1497   1.279       .  A
O1492      C1497   1.275       .  A
C1493      C1835   1.459       .  S
O1494      C1496   1.267       .  A
O1495     Ni1506   1.914       .  S
C1496      O1502   1.273       .  A
C1496      C1848   1.469       .  S
C1497      C1883   1.475       .  S
H1498      O1499   0.967       .  S
O1499     Ni1507   1.908       .  S
O1499     Ni1501   1.899       .  S
O1499     Ni1506   1.893       .  S
O1500     Ni1501   1.937       .  S
Ni1501     O1505   1.928       .  S
Ni1501     O1503   1.929       .  S
O1502     Ni1507   1.936       .  S
C1504      O1505   1.271       .  A
C1504      C2187   1.464       .  S
O1509     Ni1515   1.897       .  S
O1509      C1530   1.260       .  A
O1510     Ni1533   1.906       .  S
O1510      C1519   1.268       .  A
O1511     Ni1515   1.905       .  S
O1511     Ni1533   1.899       .  S
O1511     Ni1527   1.926       .  S
O1511      H1534   0.965       .  S
C1512      O1529   1.277       .  A
C1512      O1521   1.276       .  A
C1512      C1800   1.463       .  S
O1513     Ni1532   1.924       .  S
O1513      C1519   1.271       .  A
O1514     Ni1532   1.912       .  S
O1514      C1516   1.270       .  A
Ni1515     O1518   1.910       .  S
Ni1515     O1520   1.900       .  S
C1516      O1526   1.275       .  A
C1516      C2472   1.484       .  S
O1517     Ni1533   1.924       .  S
O1517      C1523   1.279       .  A
O1518      C1523   1.274       .  A
C1519      C1819   1.464       .  S
O1520      C1522   1.266       .  A
O1521     Ni1532   1.919       .  S
C1522      O1528   1.271       .  A
C1522      C1851   1.473       .  S
C1523      C1784   1.465       .  S
H1524      O1525   0.968       .  S
O1525     Ni1533   1.917       .  S
O1525     Ni1527   1.905       .  S
O1525     Ni1532   1.900       .  S
O1526     Ni1527   1.942       .  S
Ni1527     O1531   1.920       .  S
Ni1527     O1529   1.915       .  S
O1528     Ni1533   1.936       .  S
C1530      O1531   1.268       .  A
C1530      C2123   1.457       .  S
O1535     Ni1541   1.911       .  S
O1535      C1556   1.264       .  A
O1536     Ni1559   1.914       .  S
O1536      C1545   1.271       .  A
O1537     Ni1541   1.892       .  S
O1537     Ni1559   1.899       .  S
O1537     Ni1553   1.914       .  S
O1537      H1560   0.967       .  S
C1538      O1555   1.279       .  A
C1538      O1547   1.278       .  A
C1538      C1787   1.466       .  S
O1539     Ni1558   1.930       .  S
O1539      C1545   1.272       .  A
O1540     Ni1558   1.914       .  S
O1540      C1542   1.269       .  A
Ni1541     O1544   1.912       .  S
Ni1541     O1546   1.894       .  S
C1542      O1552   1.274       .  A
C1542      C2440   1.481       .  S
O1543     Ni1559   1.932       .  S
O1543      C1549   1.283       .  A
O1544      C1549   1.277       .  A
C1545      C1768   1.468       .  S
O1546      C1548   1.264       .  A
O1547     Ni1558   1.919       .  S
C1548      O1554   1.274       .  A
C1548      C1912   1.474       .  S
C1549      C1803   1.466   1_556  S
H1550      O1551   0.968       .  S
O1551     Ni1559   1.916       .  S
O1551     Ni1553   1.902       .  S
O1551     Ni1558   1.895       .  S
O1552     Ni1553   1.935       .  S
Ni1553     O1557   1.920       .  S
Ni1553     O1555   1.923       .  S
O1554     Ni1559   1.945       .  S
C1556      O1557   1.269       .  A
C1556      C2088   1.461       .  S
O1561     Ni1567   1.922       .  S
O1561      C1582   1.268       .  A
O1562     Ni1585   1.906       .  S
O1562      C1571   1.268       .  A
O1563     Ni1567   1.900       .  S
O1563     Ni1585   1.906   1_545  S
O1563     Ni1579   1.913       .  S
O1563      H1586   0.966       .  S
C1564      O1581   1.281   1_565  A
C1564      O1573   1.279       .  A
C1564      C1736   1.468       .  S
O1565     Ni1584   1.934       .  S
O1565      C1571   1.272       .  A
O1566     Ni1584   1.909       .  S
O1566      C1568   1.268       .  A
Ni1567     O1570   1.916       .  S
Ni1567     O1572   1.906       .  S
C1568      O1578   1.271   1_565  A
C1568      C4040   1.473       .  S
O1569     Ni1585   1.924       .  S
O1569      C1575   1.278   1_565  A
O1570      C1575   1.276       .  A
C1571      C1832   1.463       .  S
O1572      C1574   1.269       .  A
O1573     Ni1584   1.924       .  S
C1574      O1580   1.271   1_545  A
C1574      C1755   1.474       .  S
C1575      C1723   1.466       .  S
H1576      O1577   0.966       .  S
O1577     Ni1585   1.907       .  S
O1577     Ni1579   1.898   1_565  S
O1577     Ni1584   1.897       .  S
O1578     Ni1579   1.927       .  S
Ni1579     O1583   1.918       .  S
Ni1579     O1581   1.923       .  S
O1580     Ni1585   1.935       .  S
C1582      O1583   1.267       .  A
C1582      C2027   1.463       .  S
O1587     Ni1593   1.913       .  S
O1587      C1608   1.267       .  A
O1588     Ni1611   1.903       .  S
O1588      C1597   1.266       .  A
O1589     Ni1593   1.915       .  S
O1589     Ni1611   1.916   1_545  S
O1589     Ni1605   1.927       .  S
O1589      H1612   0.966       .  S
C1590      O1607   1.276   1_565  A
C1590      O1599   1.273       .  A
C1590      C1720   1.468   1_565  S
O1591     Ni1610   1.926       .  S
O1591      C1597   1.270       .  A
O1592     Ni1610   1.919       .  S
O1592      C1594   1.271       .  A
Ni1593     O1596   1.914       .  S
Ni1593     O1598   1.903       .  S
C1594      O1604   1.271   1_565  A
C1594      C4011   1.475       .  S
O1595     Ni1611   1.919       .  S
O1595      C1601   1.272   1_565  A
O1596      C1601   1.269       .  A
C1597      C1899   1.464       .  S
O1598      C1600   1.269       .  A
O1599     Ni1610   1.912       .  S
C1600      O1606   1.275   1_545  A
C1600      C1704   1.473       .  S
C1601      C1739   1.469   1_556  S
H1602      O1603   0.967       .  S
O1603     Ni1611   1.913       .  S
O1603     Ni1605   1.907   1_565  S
O1603     Ni1610   1.914       .  S
O1604     Ni1605   1.920       .  S
Ni1605     O1609   1.912       .  S
Ni1605     O1607   1.925       .  S
O1606     Ni1611   1.941       .  S
C1608      O1609   1.267       .  A
C1608      C1995   1.458       .  S
O1613     Ni1619   1.908   1_554  S
O1613      C1634   1.264       .  A
O1614     Ni1637   1.911       .  S
O1614      C1623   1.270       .  A
O1615     Ni1619   1.902       .  S
O1615     Ni1637   1.909   1_545  S
O1615     Ni1631   1.932   1_556  S
O1615      H1638   0.966       .  S
C1616      O1633   1.283   1_565  A
C1616      O1625   1.279       .  A
C1616      C1691   1.469       .  S
O1617     Ni1636   1.933   1_556  S
O1617      C1623   1.274       .  A
O1618     Ni1636   1.922       .  S
O1618      C1620   1.271       .  A
Ni1619     O1622   1.914       .  S
Ni1619     O1624   1.901       .  S
C1620      O1630   1.274   1_565  A
C1620      C2987   1.489       .  S
O1621     Ni1637   1.935       .  S
O1621      C1627   1.279   1_565  A
O1622      C1627   1.275       .  A
C1623      C1771   1.465       .  S
O1624      C1626   1.268       .  A
O1625     Ni1636   1.918       .  S
C1626      O1632   1.276   1_545  A
C1626      C1707   1.480       .  S
C1627      C1672   1.475       .  S
H1628      O1629   0.966       .  S
O1629     Ni1637   1.912   1_554  S
O1629     Ni1631   1.895   1_565  S
O1629     Ni1636   1.896       .  S
O1630     Ni1631   1.937       .  S
Ni1631     O1635   1.920       .  S
Ni1631     O1633   1.930       .  S
O1632     Ni1637   1.946       .  S
C1634      O1635   1.269       .  A
C1634      C1944   1.462       .  S
O1639     Ni1645   1.913       .  S
O1639      C1660   1.265       .  A
O1640     Ni1663   1.907       .  S
O1640      C1649   1.269       .  A
O1641     Ni1645   1.901       .  S
O1641     Ni1663   1.908   1_545  S
O1641     Ni1657   1.919       .  S
O1641      H1664   0.966       .  S
C1642      O1659   1.279   1_565  A
C1642      O1651   1.276       .  A
C1642      C1675   1.470       .  S
O1643     Ni1662   1.925       .  S
O1643      C1649   1.271       .  A
O1644     Ni1662   1.919       .  S
O1644      C1646   1.271       .  A
Ni1645     O1648   1.910       .  S
Ni1645     O1650   1.900       .  S
C1646      O1656   1.272   1_565  A
C1646      C2923   1.478       .  S
O1647     Ni1663   1.927       .  S
O1647      C1653   1.277   1_565  A
O1648      C1653   1.274       .  A
C1649      C1816   1.463       .  S
O1650      C1652   1.268       .  A
O1651     Ni1662   1.915       .  S
C1652      O1658   1.273   1_545  A
C1652      C1752   1.478       .  S
C1653      C1688   1.469       .  S
H1654      O1655   0.966       .  S
O1655     Ni1663   1.920       .  S
O1655     Ni1657   1.908   1_565  S
O1655     Ni1662   1.904       .  S
O1656     Ni1657   1.926       .  S
Ni1657     O1661   1.922       .  S
Ni1657     O1659   1.927       .  S
O1658     Ni1663   1.943       .  S
C1660      O1661   1.269       .  A
C1660      C1931   1.469       .  S
C1665      C1670   1.380   1_565  A
C1665      C1666   1.403       .  A
C1665      O1671   1.322       .  A
C1666      C1667   1.404       .  A
C1666      H1677   1.082       .  S
C1667      C1676   1.359       .  A
C1667      C1668   1.381   1_565  A
C1668      C1669   1.403       .  A
C1668      O1674   1.321       .  A
C1669      C1670   1.404       .  A
C1669      H1678   1.082       .  S
C1670      C1673   1.359       .  A
O1671      C1672   1.331   1_565  A
C1672      C1673   1.394       .  A
C1673      H1679   1.083       .  S
O1674      C1675   1.331   1_545  A
C1675      C1676   1.393       .  A
C1676      H1680   1.083       .  S
C1681      C1686   1.381   1_565  A
C1681      C1682   1.404       .  A
C1681      O1687   1.322       .  A
C1682      C1683   1.405       .  A
C1682      H1693   1.082       .  S
C1683      C1692   1.359       .  A
C1683      C1684   1.381   1_565  A
C1684      C1685   1.398       .  A
C1684      O1690   1.318       .  A
C1685      C1686   1.400       .  A
C1685      H1694   1.082       .  S
C1686      C1689   1.353       .  A
O1687      C1688   1.332   1_565  A
C1688      C1689   1.391       .  A
C1689      H1695   1.083       .  S
O1690      C1691   1.329   1_545  A
C1691      C1692   1.394       .  A
C1692      H1696   1.083       .  S
C1697      C1702   1.380       .  A
C1697      C1698   1.399       .  A
C1697      O1703   1.317       .  A
C1698      C1699   1.399       .  A
C1698      H1709   1.082       .  S
C1699      C1708   1.355       .  A
C1699      C1700   1.380       .  A
C1700      C1701   1.410   1_545  A
C1700      O1706   1.327   1_545  A
C1701      C1702   1.410   1_565  A
C1701      H1710   1.082       .  S
C1702      C1705   1.368   1_545  A
O1703      C1704   1.329       .  A
C1704      C1705   1.395   1_545  A
C1705      H1711   1.082       .  S
O1706      C1707   1.335   1_565  A
C1707      C1708   1.392       .  A
C1708      H1712   1.083       .  S
C1713      C1718   1.381   1_545  A
C1713      C1714   1.403       .  A
C1713      O1719   1.320       .  A
C1714      C1715   1.403       .  A
C1714      H1725   1.082       .  S
C1715      C1724   1.359       .  A
C1715      C1716   1.381   1_545  A
C1716      C1717   1.400       .  A
C1716      O1722   1.318       .  A
C1717      C1718   1.401       .  A
C1717      H1726   1.082       .  S
C1718      C1721   1.356       .  A
O1719      C1720   1.331       .  A
C1720      C1721   1.391   1_545  A
C1721      H1727   1.083       .  S
O1722      C1723   1.329   1_565  A
C1723      C1724   1.392       .  A
C1724      H1728   1.083       .  S
C1729      C1734   1.380   1_565  A
C1729      C1730   1.406       .  A
C1729      O1735   1.318       .  A
C1730      C1731   1.404       .  A
C1730      H1741   1.082       .  S
C1731      C1740   1.367       .  A
C1731      C1732   1.380   1_565  A
C1732      C1733   1.401       .  A
C1732      O1738   1.314       .  A
C1733      C1734   1.399       .  A
C1733      H1742   1.082       .  S
C1734      C1737   1.361       .  A
O1735      C1736   1.332       .  A
C1736      C1737   1.390   1_565  A
C1737      H1743   1.083       .  S
O1738      C1739   1.330       .  A
C1739      C1740   1.392   1_545  A
C1740      H1744   1.082       .  S
C1745      C1750   1.379   1_565  A
C1745      C1746   1.414       .  A
C1745      O1751   1.329       .  A
C1746      C1747   1.414       .  A
C1746      H1757   1.082       .  S
C1747      C1756   1.374       .  A
C1747      C1748   1.380   1_565  A
C1748      C1749   1.395       .  A
C1748      O1754   1.312       .  A
C1749      C1750   1.394       .  A
C1749      H1758   1.082       .  S
C1750      C1753   1.351       .  A
O1751      C1752   1.337   1_565  A
C1752      C1753   1.388       .  A
C1753      H1759   1.083       .  S
O1754      C1755   1.327       .  A
C1755      C1756   1.399   1_545  A
C1756      H1760   1.082       .  S
C1761      C1766   1.381       .  A
C1761      C1762   1.402       .  A
C1761      O1767   1.317       .  A
C1762      C1763   1.401       .  A
C1762      H1773   1.082       .  S
C1763      C1772   1.361       .  A
C1763      C1764   1.381       .  A
C1764      C1765   1.405       .  A
C1764      O1770   1.320       .  A
C1765      C1766   1.404       .  A
C1765      H1774   1.082       .  S
C1766      C1769   1.365       .  A
O1767      C1768   1.330       .  A
C1768      C1769   1.392       .  A
C1769      H1775   1.082       .  S
O1770      C1771   1.331       .  A
C1771      C1772   1.388       .  A
C1772      H1776   1.082       .  S
C1777      C1782   1.380       .  A
C1777      C1778   1.404       .  A
C1777      O1783   1.317       .  A
C1778      C1779   1.403       .  A
C1778      H1789   1.082       .  S
C1779      C1788   1.364       .  A
C1779      C1780   1.381       .  A
C1780      C1781   1.400       .  A
C1780      O1786   1.314       .  A
C1781      C1782   1.398       .  A
C1781      H1790   1.082       .  S
C1782      C1785   1.359       .  A
O1783      C1784   1.332       .  A
C1784      C1785   1.389       .  A
C1785      H1791   1.083       .  S
O1786      C1787   1.329       .  A
C1787      C1788   1.392       .  A
C1788      H1792   1.083       .  S
C1793      C1798   1.380       .  A
C1793      C1794   1.403       .  A
C1793      O1799   1.315       .  A
C1794      C1795   1.401       .  A
C1794      H1805   1.082       .  S
C1795      C1804   1.364       .  A
C1795      C1796   1.380       .  A
C1796      C1797   1.401       .  A
C1796      O1802   1.313       .  A
C1797      C1798   1.398       .  A
C1797      H1806   1.082       .  S
C1798      C1801   1.360       .  A
O1799      C1800   1.331       .  A
C1800      C1801   1.389       .  A
C1801      H1807   1.083       .  S
O1802      C1803   1.330       .  A
C1803      C1804   1.391       .  A
C1804      H1808   1.082       .  S
C1809      C1814   1.381       .  A
C1809      C1810   1.404       .  A
C1809      O1815   1.317       .  A
C1810      C1811   1.402       .  A
C1810      H1821   1.082       .  S
C1811      C1820   1.365       .  A
C1811      C1812   1.381       .  A
C1812      C1813   1.402       .  A
C1812      O1818   1.315       .  A
C1813      C1814   1.400       .  A
C1813      H1822   1.082       .  S
C1814      C1817   1.363       .  A
O1815      C1816   1.330       .  A
C1816      C1817   1.389       .  A
C1817      H1823   1.083       .  S
O1818      C1819   1.329       .  A
C1819      C1820   1.391       .  A
C1820      H1824   1.083       .  S
C1825      C1830   1.381       .  A
C1825      C1826   1.402       .  A
C1825      O1831   1.317       .  A
C1826      C1827   1.401       .  A
C1826      H1837   1.082       .  S
C1827      C1836   1.361       .  A
C1827      C1828   1.381       .  A
C1828      C1829   1.402       .  A
C1828      O1834   1.316       .  A
C1829      C1830   1.401       .  A
C1829      H1838   1.082       .  S
C1830      C1833   1.361       .  A
O1831      C1832   1.329       .  A
C1832      C1833   1.390       .  A
C1833      H1839   1.083       .  S
O1834      C1835   1.329       .  A
C1835      C1836   1.388       .  A
C1836      H1840   1.082       .  S
C1841      C1846   1.380       .  A
C1841      C1842   1.397       .  A
C1841      O1847   1.312       .  A
C1842      C1843   1.396       .  A
C1842      H1853   1.083       .  S
C1843      C1852   1.354       .  A
C1843      C1844   1.380       .  A
C1844      C1845   1.410       .  A
C1844      O1850   1.324       .  A
C1845      C1846   1.409       .  A
C1845      H1854   1.082       .  S
C1846      C1849   1.370       .  A
O1847      C1848   1.328       .  A
C1848      C1849   1.395       .  A
C1849      H1855   1.082       .  S
O1850      C1851   1.334       .  A
C1851      C1852   1.390       .  A
C1852      H1856   1.083       .  S
C1857      C1862   1.381       .  A
C1857      C1858   1.402       .  A
C1857      O1863   1.323       .  A
C1858      C1859   1.404       .  A
C1858      H1869   1.082       .  S
C1859      C1868   1.355       .  A
C1859      C1860   1.381       .  A
C1860      C1861   1.398       .  A
C1860      O1866   1.319       .  A
C1861      C1862   1.400       .  A
C1861      H1870   1.082       .  S
C1862      C1865   1.351       .  A
O1863      C1864   1.330       .  A
C1864      C1865   1.391       .  A
C1865      H1871   1.083       .  S
O1866      C1867   1.328       .  A
C1867      C1868   1.393       .  A
C1868      H1872   1.083       .  S
C1873      C1878   1.381       .  A
C1873      C1874   1.402       .  A
C1873      O1879   1.321       .  A
C1874      C1875   1.403       .  A
C1874      H1885   1.082       .  S
C1875      C1884   1.357       .  A
C1875      C1876   1.380       .  A
C1876      C1877   1.405       .  A
C1876      O1882   1.324       .  A
C1877      C1878   1.406       .  A
C1877      H1886   1.082       .  S
C1878      C1881   1.360       .  A
O1879      C1880   1.330       .  A
C1880      C1881   1.395       .  A
C1881      H1887   1.083       .  S
O1882      C1883   1.333       .  A
C1883      C1884   1.392       .  A
C1884      H1888   1.083       .  S
C1889      C1894   1.381       .  A
C1889      C1890   1.403       .  A
C1889      O1895   1.317       .  A
C1890      C1891   1.401       .  A
C1890      H1901   1.082   1_556  S
C1891      C1900   1.362       .  A
C1891      C1892   1.381       .  A
C1892      C1893   1.403       .  A
C1892      O1898   1.318       .  A
C1893      C1894   1.402       .  A
C1893      H1902   1.082       .  S
C1894      C1897   1.362       .  A
O1895      C1896   1.330       .  A
C1896      C1897   1.390       .  A
C1897      H1903   1.083       .  S
O1898      C1899   1.330       .  A
C1899      C1900   1.389       .  A
C1900      H1904   1.083       .  S
C1905      C1910   1.380       .  A
C1905      C1906   1.399       .  A
C1905      O1911   1.313       .  A
C1906      C1907   1.397       .  A
C1906      H1917   1.082       .  S
C1907      C1916   1.356       .  A
C1907      C1908   1.379       .  A
C1908      C1909   1.411       .  A
C1908      O1914   1.325       .  A
C1909      C1910   1.410       .  A
C1909      H1918   1.082       .  S
C1910      C1913   1.373       .  A
O1911      C1912   1.329       .  A
C1912      C1913   1.396       .  A
C1913      H1919   1.082       .  S
O1914      C1915   1.336       .  A
C1915      C1916   1.390       .  A
C1916      H1920   1.083       .  S
C1921      C1926   1.380       .  A
C1921      C1922   1.405       .  A
C1921      O1927   1.315       .  A
C1922      C1923   1.402       .  A
C1922      H1933   1.082       .  S
C1923      C1932   1.366       .  A
C1923      C1924   1.380       .  A
C1924      C1925   1.404       .  A
C1924      O1930   1.315       .  A
C1925      C1926   1.401       .  A
C1925      H1934   1.082       .  S
C1926      C1929   1.366       .  A
O1927      C1928   1.331       .  A
C1928      C1929   1.389       .  A
C1929      H1935   1.082       .  S
O1930      C1931   1.331       .  A
C1931      C1932   1.391       .  A
C1932      H1936   1.082       .  S
C1937      C1942   1.380       .  A
C1937      C1938   1.403       .  A
C1937      O1943   1.313       .  A
C1938      C1939   1.400       .  A
C1938      H1949   1.082   1_554  S
C1939      C1948   1.365       .  A
C1939      C1940   1.381       .  A
C1940      C1941   1.403       .  A
C1940      O1946   1.313       .  A
C1941      C1942   1.400       .  A
C1941      H1950   1.082       .  S
C1942      C1945   1.365       .  A
O1943      C1944   1.330       .  A
C1944      C1945   1.389       .  A
C1945      H1951   1.082       .  S
O1946      C1947   1.330       .  A
C1947      C1948   1.388       .  A
C1948      H1952   1.082       .  S
C1953      C1958   1.380       .  A
C1953      C1954   1.402       .  A
C1953      O1959   1.313       .  A
C1954      C1955   1.399       .  A
C1954      H1965   1.082       .  S
C1955      C1964   1.363       .  A
C1955      C1956   1.380       .  A
C1956      C1957   1.402       .  A
C1956      O1962   1.312       .  A
C1957      C1958   1.398       .  A
C1957      H1966   1.082       .  S
C1958      C1961   1.363       .  A
O1959      C1960   1.330       .  A
C1960      C1961   1.389       .  A
C1961      H1967   1.083       .  S
O1962      C1963   1.330       .  A
C1963      C1964   1.390       .  A
C1964      H1968   1.083       .  S
C1969      C1974   1.380       .  A
C1969      C1970   1.403       .  A
C1969      O1975   1.323       .  A
C1970      C1971   1.405       .  A
C1970      H1981   1.082       .  S
C1971      C1980   1.358       .  A
C1971      C1972   1.380       .  A
C1972      C1973   1.404       .  A
C1972      O1978   1.324       .  A
C1973      C1974   1.405       .  A
C1973      H1982   1.082       .  S
C1974      C1977   1.358       .  A
O1975      C1976   1.332       .  A
C1976      C1977   1.394       .  A
C1977      H1983   1.083       .  S
O1978      C1979   1.332       .  A
C1979      C1980   1.394       .  A
C1980      H1984   1.083       .  S
C1985      C1990   1.380       .  A
C1985      C1986   1.405       .  A
C1985      O1991   1.316       .  A
C1986      C1987   1.403       .  A
C1986      H1997   1.082       .  S
C1987      C1996   1.367       .  A
C1987      C1988   1.381       .  A
C1988      C1989   1.399       .  A
C1988      O1994   1.312       .  A
C1989      C1990   1.396       .  A
C1989      H1998   1.082       .  S
C1990      C1993   1.360       .  A
O1991      C1992   1.332       .  A
C1992      C1993   1.386       .  A
C1993      H1999   1.082       .  S
O1994      C1995   1.328       .  A
C1995      C1996   1.391       .  A
C1996      H2000   1.082       .  S
C2001      C2006   1.379       .  A
C2001      C2002   1.411       .  A
C2001      O2007   1.328       .  A
C2002      C2003   1.412       .  A
C2002      H2013   1.082       .  S
C2003      C2012   1.370       .  A
C2003      C2004   1.380       .  A
C2004      C2005   1.398       .  A
C2004      O2010   1.317       .  A
C2005      C2006   1.399       .  A
C2005      H2014   1.082       .  S
C2006      C2009   1.354       .  A
O2007      C2008   1.336       .  A
C2008      C2009   1.391       .  A
C2009      H2015   1.083       .  S
O2010      C2011   1.329       .  A
C2011      C2012   1.397       .  A
C2012      H2016   1.082       .  S
C2017      C2022   1.380       .  A
C2017      C2018   1.398       .  A
C2017      O2023   1.312       .  A
C2018      C2019   1.396       .  A
C2018      H2029   1.082       .  S
C2019      C2028   1.357       .  A
C2019      C2020   1.380       .  A
C2020      C2021   1.410       .  A
C2020      O2026   1.322       .  A
C2021      C2022   1.408       .  A
C2021      H2030   1.082       .  S
C2022      C2025   1.371       .  A
O2023      C2024   1.328       .  A
C2024      C2025   1.394       .  A
C2025      H2031   1.082       .  S
O2026      C2027   1.333       .  A
C2027      C2028   1.386       .  A
C2028      H2032   1.083       .  S
C2033      C2038   1.381       .  A
C2033      C2034   1.399       .  A
C2033      O2039   1.313       .  A
C2034      C2035   1.397       .  A
C2034      H2045   1.082       .  S
C2035      C2044   1.358       .  A
C2035      C2036   1.380       .  A
C2036      C2037   1.404       .  A
C2036      O2042   1.317       .  A
C2037      C2038   1.402       .  A
C2037      H2046   1.082       .  S
C2038      C2041   1.363       .  A
O2039      C2040   1.328       .  A
C2040      C2041   1.392       .  A
C2041      H2047   1.083       .  S
O2042      C2043   1.331       .  A
C2043      C2044   1.389       .  A
C2044      H2048   1.083       .  S
C2049      C2054   1.380       .  A
C2049      C2050   1.403       .  A
C2049      O2055   1.316       .  A
C2050      C2051   1.401   1_554  A
C2050      H2061   1.082       .  S
C2051      C2060   1.364       .  A
C2051      C2052   1.380       .  A
C2052      C2053   1.403   1_556  A
C2052      O2058   1.316       .  A
C2053      C2054   1.401       .  A
C2053      H2062   1.082       .  S
C2054      C2057   1.363       .  A
O2055      C2056   1.331       .  A
C2056      C2057   1.391       .  A
C2057      H2063   1.083       .  S
O2058      C2059   1.331       .  A
C2059      C2060   1.390       .  A
C2060      H2064   1.082       .  S
C2065      C2070   1.380       .  A
C2065      C2066   1.410       .  A
C2065      O2071   1.324       .  A
C2066      C2067   1.409       .  A
C2066      H2077   1.082       .  S
C2067      C2076   1.372       .  A
C2067      C2068   1.380       .  A
C2068      C2069   1.398       .  A
C2068      O2074   1.313       .  A
C2069      C2070   1.397       .  A
C2069      H2078   1.083       .  S
C2070      C2073   1.355       .  A
O2071      C2072   1.334       .  A
C2072      C2073   1.390       .  A
C2073      H2079   1.083       .  S
O2074      C2075   1.329       .  A
C2075      C2076   1.396       .  A
C2076      H2080   1.082       .  S
C2081      C2086   1.380       .  A
C2081      C2082   1.400       .  A
C2081      O2087   1.313       .  A
C2082      C2083   1.398       .  A
C2082      H2093   1.083       .  S
C2083      C2092   1.358       .  A
C2083      C2084   1.381       .  A
C2084      C2085   1.404       .  A
C2084      O2090   1.318       .  A
C2085      C2086   1.402       .  A
C2085      H2094   1.082       .  S
C2086      C2089   1.365       .  A
O2087      C2088   1.329       .  A
C2088      C2089   1.390       .  A
C2089      H2095   1.082       .  S
O2090      C2091   1.330       .  A
C2091      C2092   1.389       .  A
C2092      H2096   1.083       .  S
C2097      C2102   1.381       .  A
C2097      C2098   1.404       .  A
C2097      O2103   1.318       .  A
C2098      C2099   1.402       .  A
C2098      H2109   1.082       .  S
C2099      C2108   1.364       .  A
C2099      C2100   1.380       .  A
C2100      C2101   1.405       .  A
C2100      O2106   1.319       .  A
C2101      C2102   1.403       .  A
C2101      H2110   1.082       .  S
C2102      C2105   1.365       .  A
O2103      C2104   1.330       .  A
C2104      C2105   1.391       .  A
C2105      H2111   1.083       .  S
O2106      C2107   1.331       .  A
C2107      C2108   1.391       .  A
C2108      H2112   1.083       .  S
C2113      C2118   1.381       .  A
C2113      C2114   1.400       .  A
C2113      O2119   1.311       .  A
C2114      C2115   1.397       .  A
C2114      H2125   1.082       .  S
C2115      C2124   1.362       .  A
C2115      C2116   1.381       .  A
C2116      C2117   1.403       .  A
C2116      O2122   1.313       .  A
C2117      C2118   1.400       .  A
C2117      H2126   1.082       .  S
C2118      C2121   1.365       .  A
O2119      C2120   1.328       .  A
C2120      C2121   1.389       .  A
C2121      H2127   1.083       .  S
O2122      C2123   1.330       .  A
C2123      C2124   1.386       .  A
C2124      H2128   1.082       .  S
C2129      C2134   1.380       .  A
C2129      C2130   1.401       .  A
C2129      O2135   1.315       .  A
C2130      C2131   1.400       .  A
C2130      H2141   1.082       .  S
C2131      C2140   1.361       .  A
C2131      C2132   1.380       .  A
C2132      C2133   1.406       .  A
C2132      O2138   1.319       .  A
C2133      C2134   1.404       .  A
C2133      H2142   1.082       .  S
C2134      C2137   1.366       .  A
O2135      C2136   1.330       .  A
C2136      C2137   1.393       .  A
C2137      H2143   1.083       .  S
O2138      C2139   1.332       .  A
C2139      C2140   1.391       .  A
C2140      H2144   1.083       .  S
C2145      C2150   1.380       .  A
C2145      C2146   1.403   1_556  A
C2145      O2151   1.316       .  A
C2146      C2147   1.400       .  A
C2146      H2157   1.082       .  S
C2147      C2156   1.363       .  A
C2147      C2148   1.380       .  A
C2148      C2149   1.403       .  A
C2148      O2154   1.315       .  A
C2149      C2150   1.401   1_554  A
C2149      H2158   1.082       .  S
C2150      C2153   1.362       .  A
O2151      C2152   1.330       .  A
C2152      C2153   1.391       .  A
C2153      H2159   1.083       .  S
O2154      C2155   1.331       .  A
C2155      C2156   1.391       .  A
C2156      H2160   1.083       .  S
C2161      C2166   1.381       .  A
C2161      C2162   1.401       .  A
C2161      O2167   1.316       .  A
C2162      C2163   1.399       .  A
C2162      H2173   1.082       .  S
C2163      C2172   1.360       .  A
C2163      C2164   1.381       .  A
C2164      C2165   1.404       .  A
C2164      O2170   1.318       .  A
C2165      C2166   1.403       .  A
C2165      H2174   1.082       .  S
C2166      C2169   1.364       .  A
O2167      C2168   1.329       .  A
C2168      C2169   1.392       .  A
C2169      H2175   1.083       .  S
O2170      C2171   1.331       .  A
C2171      C2172   1.388       .  A
C2172      H2176   1.083       .  S
C2177      C2182   1.380       .  A
C2177      C2178   1.403       .  A
C2177      O2183   1.313       .  A
C2178      C2179   1.400       .  A
C2178      H2189   1.082       .  S
C2179      C2188   1.366       .  A
C2179      C2180   1.380       .  A
C2180      C2181   1.406       .  A
C2180      O2186   1.315       .  A
C2181      C2182   1.403       .  A
C2181      H2190   1.082       .  S
C2182      C2185   1.369       .  A
O2183      C2184   1.330       .  A
C2184      C2185   1.392       .  A
C2185      H2191   1.082       .  S
O2186      C2187   1.331       .  A
C2187      C2188   1.389       .  A
C2188      H2192   1.082       .  S
C2193      C2198   1.381       .  A
C2193      C2194   1.404       .  A
C2193      O2199   1.317       .  A
C2194      C2195   1.402       .  A
C2194      H2205   1.082       .  S
C2195      C2204   1.363       .  A
C2195      C2196   1.381       .  A
C2196      C2197   1.403       .  A
C2196      O2202   1.317       .  A
C2197      C2198   1.401       .  A
C2197      H2206   1.082       .  S
C2198      C2201   1.363       .  A
O2199      C2200   1.330       .  A
C2200      C2201   1.389       .  A
C2201      H2207   1.082       .  S
O2202      C2203   1.329       .  A
C2203      C2204   1.390       .  A
C2204      H2208   1.083       .  S
C2209      C2214   1.380       .  A
C2209      C2210   1.410       .  A
C2209      O2215   1.325       .  A
C2210      C2211   1.409       .  A
C2210      H2221   1.082       .  S
C2211      C2220   1.371       .  A
C2211      C2212   1.380       .  A
C2212      C2213   1.400       .  A
C2212      O2218   1.314       .  A
C2213      C2214   1.399       .  A
C2213      H2222   1.083       .  S
C2214      C2217   1.357       .  A
O2215      C2216   1.334       .  A
C2216      C2217   1.391       .  A
C2217      H2223   1.083       .  S
O2218      C2219   1.330       .  A
C2219      C2220   1.395       .  A
C2220      H2224   1.082       .  S
C2225      C2230   1.380       .  A
C2225      C2226   1.402       .  A
C2225      O2231   1.314       .  A
C2226      C2227   1.400       .  A
C2226      H2237   1.082       .  S
C2227      C2236   1.364       .  A
C2227      C2228   1.381       .  A
C2228      C2229   1.403       .  A
C2228      O2234   1.314       .  A
C2229      C2230   1.400       .  A
C2229      H2238   1.082       .  S
C2230      C2233   1.364       .  A
O2231      C2232   1.330       .  A
C2232      C2233   1.390       .  A
C2233      H2239   1.082       .  S
O2234      C2235   1.330       .  A
C2235      C2236   1.388       .  A
C2236      H2240   1.082       .  S
C2241      C2246   1.380       .  A
C2241      C2242   1.401       .  A
C2241      O2247   1.320       .  A
C2242      C2243   1.402       .  A
C2242      H2253   1.082       .  S
C2243      C2252   1.357       .  A
C2243      C2244   1.380       .  A
C2244      C2245   1.406       .  A
C2244      O2250   1.323       .  A
C2245      C2246   1.406       .  A
C2245      H2254   1.082       .  S
C2246      C2249   1.362       .  A
O2247      C2248   1.330       .  A
C2248      C2249   1.394       .  A
C2249      H2255   1.083       .  S
O2250      C2251   1.333       .  A
C2251      C2252   1.392       .  A
C2252      H2256   1.083       .  S
C2257      C2262   1.381       .  A
C2257      C2258   1.400       .  A
C2257      O2263   1.319       .  A
C2258      C2259   1.401       .  A
C2258      H2269   1.082       .  S
C2259      C2268   1.356       .  A
C2259      C2260   1.381       .  A
C2260      C2261   1.401       .  A
C2260      O2266   1.320       .  A
C2261      C2262   1.402       .  A
C2261      H2270   1.082       .  S
C2262      C2265   1.357       .  A
O2263      C2264   1.330       .  A
C2264      C2265   1.393       .  A
C2265      H2271   1.083       .  S
O2266      C2267   1.330       .  A
C2267      C2268   1.392       .  A
C2268      H2272   1.083       .  S
C2273      C2278   1.381       .  A
C2273      C2274   1.401       .  A
C2273      O2279   1.316       .  A
C2274      C2275   1.400       .  A
C2274      H2285   1.082       .  S
C2275      C2284   1.361       .  A
C2275      C2276   1.381       .  A
C2276      C2277   1.403       .  A
C2276      O2282   1.317       .  A
C2277      C2278   1.402       .  A
C2277      H2286   1.082       .  S
C2278      C2281   1.362       .  A
O2279      C2280   1.328       .  A
C2280      C2281   1.390       .  A
C2281      H2287   1.083       .  S
O2282      C2283   1.331       .  A
C2283      C2284   1.388       .  A
C2284      H2288   1.082       .  S
C2289      C2294   1.380       .  A
C2289      C2290   1.402       .  A
C2289      O2295   1.317       .  A
C2290      C2291   1.401       .  A
C2290      H2301   1.083       .  S
C2291      C2300   1.358       .  A
C2291      C2292   1.379       .  A
C2292      C2293   1.411       .  A
C2292      O2298   1.327       .  A
C2293      C2294   1.411       .  A
C2293      H2302   1.082       .  S
C2294      C2297   1.372       .  A
O2295      C2296   1.331       .  A
C2296      C2297   1.396       .  A
C2297      H2303   1.082       .  S
O2298      C2299   1.335       .  A
C2299      C2300   1.392       .  A
C2300      H2304   1.083       .  S
C2305      C2310   1.380       .  A
C2305      C2306   1.405       .  A
C2305      O2311   1.321       .  A
C2306      C2307   1.405       .  A
C2306      H2317   1.082       .  S
C2307      C2316   1.364       .  A
C2307      C2308   1.379       .  A
C2308      C2309   1.407       .  A
C2308      O2314   1.322       .  A
C2309      C2310   1.407       .  A
C2309      H2318   1.082       .  S
C2310      C2313   1.365       .  A
O2311      C2312   1.332       .  A
C2312      C2313   1.395       .  A
C2313      H2319   1.083       .  S
O2314      C2315   1.334       .  A
C2315      C2316   1.394       .  A
C2316      H2320   1.082       .  S
C2321      C2326   1.380       .  A
C2321      C2322   1.402       .  A
C2321      O2327   1.318       .  A
C2322      C2323   1.402       .  A
C2322      H2333   1.082       .  S
C2323      C2332   1.361       .  A
C2323      C2324   1.379       .  A
C2324      C2325   1.408       .  A
C2324      O2330   1.323       .  A
C2325      C2326   1.407       .  A
C2325      H2334   1.082       .  S
C2326      C2329   1.367       .  A
O2327      C2328   1.331       .  A
C2328      C2329   1.395       .  A
C2329      H2335   1.082       .  S
O2330      C2331   1.334       .  A
C2331      C2332   1.392       .  A
C2332      H2336   1.083       .  S
C2337      C2342   1.381       .  A
C2337      C2338   1.399       .  A
C2337      O2343   1.319       .  A
C2338      C2339   1.400       .  A
C2338      H2349   1.082       .  S
C2339      C2348   1.355       .  A
C2339      C2340   1.380       .  A
C2340      C2341   1.405       .  A
C2340      O2346   1.322       .  A
C2341      C2342   1.406       .  A
C2341      H2350   1.082       .  S
C2342      C2345   1.361       .  A
O2343      C2344   1.329       .  A
C2344      C2345   1.395       .  A
C2345      H2351   1.083       .  S
O2346      C2347   1.332       .  A
C2347      C2348   1.391       .  A
C2348      H2352   1.083       .  S
C2353      C2358   1.380       .  A
C2353      C2354   1.403       .  A
C2353      O2359   1.316       .  A
C2354      C2355   1.401       .  A
C2354      H2365   1.082       .  S
C2355      C2364   1.364       .  A
C2355      C2356   1.380       .  A
C2356      C2357   1.403       .  A
C2356      O2362   1.314       .  A
C2357      C2358   1.400       .  A
C2357      H2366   1.082       .  S
C2358      C2361   1.362       .  A
O2359      C2360   1.330       .  A
C2360      C2361   1.391       .  A
C2361      H2367   1.083       .  S
O2362      C2363   1.331       .  A
C2363      C2364   1.390       .  A
C2364      H2368   1.082       .  S
C2369      C2374   1.380       .  A
C2369      C2370   1.398       .  A
C2369      O2375   1.314       .  A
C2370      C2371   1.397       .  A
C2370      H2381   1.082       .  S
C2371      C2380   1.355       .  A
C2371      C2372   1.379       .  A
C2372      C2373   1.412       .  A
C2372      O2378   1.326       .  A
C2373      C2374   1.412       .  A
C2373      H2382   1.082       .  S
C2374      C2377   1.373       .  A
O2375      C2376   1.329       .  A
C2376      C2377   1.397       .  A
C2377      H2383   1.082       .  S
O2378      C2379   1.336       .  A
C2379      C2380   1.390       .  A
C2380      H2384   1.083       .  S
C2385      C2390   1.380       .  A
C2385      C2386   1.404       .  A
C2385      O2391   1.318       .  A
C2386      C2387   1.403       .  A
C2386      H2397   1.082       .  S
C2387      C2396   1.362       .  A
C2387      C2388   1.381       .  A
C2388      C2389   1.400       .  A
C2388      O2394   1.315       .  A
C2389      C2390   1.399       .  A
C2389      H2398   1.082       .  S
C2390      C2393   1.359       .  A
O2391      C2392   1.331       .  A
C2392      C2393   1.390       .  A
C2393      H2399   1.083       .  S
O2394      C2395   1.329   1_556  A
C2395      C2396   1.392   1_554  A
C2396      H2400   1.083       .  S
C2401      C2406   1.381       .  A
C2401      C2402   1.403       .  A
C2401      O2407   1.321       .  A
C2402      C2403   1.403       .  A
C2402      H2413   1.082       .  S
C2403      C2412   1.358       .  A
C2403      C2404   1.381       .  A
C2404      C2405   1.399       .  A
C2404      O2410   1.318       .  A
C2405      C2406   1.400       .  A
C2405      H2414   1.082       .  S
C2406      C2409   1.355       .  A
O2407      C2408   1.331       .  A
C2408      C2409   1.389       .  A
C2409      H2415   1.083       .  S
O2410      C2411   1.329       .  A
C2411      C2412   1.392       .  A
C2412      H2416   1.083       .  S
C2417      C2422   1.379       .  A
C2417      C2418   1.411       .  A
C2417      O2423   1.325       .  A
C2418      C2419   1.410       .  A
C2418      H2429   1.082       .  S
C2419      C2428   1.372       .  A
C2419      C2420   1.379       .  A
C2420      C2421   1.405       .  A
C2420      O2426   1.320       .  A
C2421      C2422   1.404       .  A
C2421      H2430   1.082       .  S
C2422      C2425   1.363       .  A
O2423      C2424   1.335       .  A
C2424      C2425   1.393       .  A
C2425      H2431   1.083       .  S
O2426      C2427   1.333       .  A
C2427      C2428   1.396       .  A
C2428      H2432   1.082       .  S
C2433      C2438   1.379       .  A
C2433      C2434   1.407       .  A
C2433      O2439   1.321       .  A
C2434      C2435   1.406       .  A
C2434      H2445   1.082       .  S
C2435      C2444   1.366       .  A
C2435      C2436   1.379       .  A
C2436      C2437   1.407       .  A
C2436      O2442   1.322       .  A
C2437      C2438   1.406       .  A
C2437      H2446   1.082       .  S
C2438      C2441   1.367       .  A
O2439      C2440   1.334       .  A
C2440      C2441   1.394       .  A
C2441      H2447   1.082       .  S
O2442      C2443   1.334       .  A
C2443      C2444   1.394       .  A
C2444      H2448   1.082       .  S
C2449      C2454   1.381       .  A
C2449      C2450   1.406       .  A
C2449      O2455   1.321       .  A
C2450      C2451   1.405       .  A
C2450      H2461   1.082       .  S
C2451      C2460   1.365       .  A
C2451      C2452   1.381       .  A
C2452      C2453   1.401       .  A
C2452      O2458   1.316       .  A
C2453      C2454   1.400       .  A
C2453      H2462   1.082       .  S
C2454      C2457   1.359       .  A
O2455      C2456   1.332       .  A
C2456      C2457   1.388       .  A
C2457      H2463   1.082       .  S
O2458      C2459   1.329       .  A
C2459      C2460   1.392       .  A
C2460      H2464   1.082       .  S
C2465      C2470   1.379       .  A
C2465      C2466   1.409       .  A
C2465      O2471   1.325       .  A
C2466      C2467   1.409       .  A
C2466      H2477   1.082       .  S
C2467      C2476   1.368       .  A
C2467      C2468   1.379       .  A
C2468      C2469   1.406       .  A
C2468      O2474   1.322       .  A
C2469      C2470   1.406       .  A
C2469      H2478   1.082       .  S
C2470      C2473   1.364       .  A
O2471      C2472   1.335       .  A
C2472      C2473   1.394       .  A
C2473      H2479   1.082       .  S
O2474      C2475   1.333       .  A
C2475      C2476   1.396       .  A
C2476      H2480   1.082       .  S
C2481      C2486   1.381       .  A
C2481      C2482   1.399       .  A
C2481      O2487   1.317       .  A
C2482      C2483   1.399       .  A
C2482      H2493   1.082       .  S
C2483      C2492   1.354       .  A
C2483      C2484   1.381       .  A
C2484      C2485   1.403       .  A
C2484      O2490   1.321       .  A
C2485      C2486   1.404       .  A
C2485      H2494   1.082       .  S
C2486      C2489   1.360       .  A
O2487      C2488   1.328       .  A
C2488      C2489   1.393       .  A
C2489      H2495   1.083       .  S
O2490      C2491   1.331       .  A
C2491      C2492   1.391       .  A
C2492      H2496   1.083       .  S
C2497      C2502   1.380       .  A
C2497      C2498   1.405       .  A
C2497      O2503   1.318       .  A
C2498      C2499   1.403       .  A
C2498      H2509   1.082       .  S
C2499      C2508   1.364       .  A
C2499      C2500   1.381       .  A
C2500      C2501   1.400       .  A
C2500      O2506   1.314       .  A
C2501      C2502   1.398       .  A
C2501      H2510   1.082       .  S
C2502      C2505   1.359       .  A
O2503      C2504   1.332       .  A
C2504      C2505   1.389       .  A
C2505      H2511   1.083       .  S
O2506      C2507   1.329       .  A
C2507      C2508   1.392       .  A
C2508      H2512   1.083       .  S
C2513      C2518   1.380       .  A
C2513      C2514   1.405       .  A
C2513      O2519   1.318       .  A
C2514      C2515   1.403       .  A
C2514      H2525   1.082       .  S
C2515      C2524   1.365       .  A
C2515      C2516   1.381       .  A
C2516      C2517   1.403       .  A
C2516      O2522   1.317       .  A
C2517      C2518   1.401       .  A
C2517      H2526   1.082       .  S
C2518      C2521   1.363       .  A
O2519      C2520   1.332       .  A
C2520      C2521   1.390       .  A
C2521      H2527   1.082       .  S
O2522      C2523   1.329       .  A
C2523      C2524   1.390       .  A
C2524      H2528   1.083       .  S
C2529      C2534   1.381       .  A
C2529      C2530   1.404       .  A
C2529      O2535   1.318       .  A
C2530      C2531   1.402       .  A
C2530      H2541   1.082       .  S
C2531      C2540   1.362       .  A
C2531      C2532   1.381       .  A
C2532      C2533   1.401       .  A
C2532      O2538   1.316       .  A
C2533      C2534   1.400       .  A
C2533      H2542   1.082       .  S
C2534      C2537   1.360       .  A
O2535      C2536   1.331       .  A
C2536      C2537   1.389       .  A
C2537      H2543   1.083       .  S
O2538      C2539   1.328       .  A
C2539      C2540   1.390       .  A
C2540      H2544   1.083       .  S
C2545      C2550   1.380       .  A
C2545      C2546   1.402       .  A
C2545      O2551   1.317       .  A
C2546      C2547   1.400       .  A
C2546      H2557   1.082       .  S
C2547      C2556   1.360       .  A
C2547      C2548   1.380       .  A
C2548      C2549   1.408       .  A
C2548      O2554   1.322       .  A
C2549      C2550   1.407       .  A
C2549      H2558   1.082       .  S
C2550      C2553   1.369       .  A
O2551      C2552   1.331       .  A
C2552      C2553   1.395       .  A
C2553      H2559   1.082       .  S
O2554      C2555   1.333       .  A
C2555      C2556   1.391       .  A
C2556      H2560   1.083       .  S
C2561      C2566   1.380       .  A
C2561      C2562   1.406       .  A
C2561      O2567   1.318       .  A
C2562      C2563   1.404       .  A
C2562      H2573   1.082       .  S
C2563      C2572   1.366       .  A
C2563      C2564   1.380       .  A
C2564      C2565   1.402       .  A
C2564      O2570   1.315       .  A
C2565      C2566   1.400       .  A
C2565      H2574   1.082       .  S
C2566      C2569   1.362       .  A
O2567      C2568   1.332       .  A
C2568      C2569   1.391       .  A
C2569      H2575   1.083       .  S
O2570      C2571   1.330       .  A
C2571      C2572   1.393       .  A
C2572      H2576   1.083       .  S
C2577      C2582   1.381       .  A
C2577      C2578   1.397       .  A
C2577      O2583   1.318       .  A
C2578      C2579   1.399       .  A
C2578      H2589   1.082       .  S
C2579      C2588   1.352       .  A
C2579      C2580   1.381       .  A
C2580      C2581   1.404       .  A
C2580      O2586   1.324       .  A
C2581      C2582   1.406       .  A
C2581      H2590   1.082       .  S
C2582      C2585   1.359       .  A
O2583      C2584   1.327       .  A
C2584      C2585   1.394       .  A
C2585      H2591   1.083       .  S
O2586      C2587   1.332       .  A
C2587      C2588   1.391       .  A
C2588      H2592   1.083       .  S
C2593      C2598   1.381       .  A
C2593      C2594   1.400       .  A
C2593      O2599   1.316       .  A
C2594      C2595   1.399       .  A
C2594      H2605   1.082       .  S
C2595      C2604   1.358       .  A
C2595      C2596   1.381       .  A
C2596      C2597   1.403       .  A
C2596      O2602   1.318       .  A
C2597      C2598   1.402       .  A
C2597      H2606   1.082       .  S
C2598      C2601   1.362       .  A
O2599      C2600   1.329       .  A
C2600      C2601   1.390       .  A
C2601      H2607   1.082       .  S
O2602      C2603   1.329       .  A
C2603      C2604   1.387       .  A
C2604      H2608   1.083       .  S
C2609      C2614   1.379       .  A
C2609      C2610   1.414       .  A
C2609      O2615   1.329       .  A
C2610      C2611   1.414       .  A
C2610      H2621   1.082       .  S
C2611      C2620   1.375       .  A
C2611      C2612   1.380       .  A
C2612      C2613   1.398       .  A
C2612      O2618   1.315       .  A
C2613      C2614   1.398       .  A
C2613      H2622   1.082       .  S
C2614      C2617   1.355       .  A
O2615      C2616   1.337       .  A
C2616      C2617   1.391       .  A
C2617      H2623   1.083       .  S
O2618      C2619   1.329       .  A
C2619      C2620   1.398       .  A
C2620      H2624   1.082       .  S
C2625      C2630   1.379       .  A
C2625      C2626   1.411   1_554  A
C2625      O2631   1.325       .  A
C2626      C2627   1.410       .  A
C2626      H2637   1.082       .  S
C2627      C2636   1.370       .  A
C2627      C2628   1.380       .  A
C2628      C2629   1.402       .  A
C2628      O2634   1.318       .  A
C2629      C2630   1.401   1_556  A
C2629      H2638   1.082   1_556  S
C2630      C2633   1.360       .  A
O2631      C2632   1.336       .  A
C2632      C2633   1.392       .  A
C2633      H2639   1.083       .  S
O2634      C2635   1.330       .  A
C2635      C2636   1.397       .  A
C2636      H2640   1.083       .  S
C2641      C2646   1.380       .  A
C2641      C2642   1.404       .  A
C2641      O2647   1.316       .  A
C2642      C2643   1.401       .  A
C2642      H2653   1.082   1_556  S
C2643      C2652   1.364       .  A
C2643      C2644   1.380       .  A
C2644      C2645   1.404       .  A
C2644      O2650   1.316       .  A
C2645      C2646   1.402       .  A
C2645      H2654   1.082       .  S
C2646      C2649   1.365       .  A
O2647      C2648   1.331       .  A
C2648      C2649   1.390       .  A
C2649      H2655   1.082       .  S
O2650      C2651   1.331       .  A
C2651      C2652   1.390       .  A
C2652      H2656   1.082       .  S
C2657      C2662   1.380       .  A
C2657      C2658   1.404       .  A
C2657      O2663   1.320       .  A
C2658      C2659   1.403       .  A
C2658      H2669   1.082       .  S
C2659      C2668   1.362       .  A
C2659      C2660   1.379       .  A
C2660      C2661   1.410       .  A
C2660      O2666   1.325       .  A
C2661      C2662   1.410       .  A
C2661      H2670   1.082       .  S
C2662      C2665   1.369       .  A
O2663      C2664   1.332       .  A
C2664      C2665   1.397       .  A
C2665      H2671   1.082       .  S
O2666      C2667   1.336       .  A
C2667      C2668   1.393       .  A
C2668      H2672   1.082       .  S
C2673      C2678   1.382       .  A
C2673      C2674   1.401       .  A
C2673      O2679   1.321       .  A
C2674      C2675   1.402       .  A
C2674      H2685   1.082       .  S
C2675      C2684   1.356       .  A
C2675      C2676   1.381       .  A
C2676      C2677   1.401       .  A
C2676      O2682   1.321       .  A
C2677      C2678   1.403       .  A
C2677      H2686   1.082       .  S
C2678      C2681   1.357       .  A
O2679      C2680   1.330       .  A
C2680      C2681   1.392       .  A
C2681      H2687   1.083       .  S
O2682      C2683   1.330       .  A
C2683      C2684   1.390       .  A
C2684      H2688   1.083       .  S
C2689      C2694   1.381       .  A
C2689      C2690   1.400       .  A
C2689      O2695   1.313       .  A
C2690      C2691   1.397       .  A
C2690      H2701   1.082       .  S
C2691      C2700   1.360       .  A
C2691      C2692   1.380       .  A
C2692      C2693   1.407       .  A
C2692      O2698   1.319       .  A
C2693      C2694   1.405       .  A
C2693      H2702   1.082       .  S
C2694      C2697   1.367       .  A
O2695      C2696   1.329       .  A
C2696      C2697   1.393       .  A
C2697      H2703   1.083       .  S
O2698      C2699   1.333       .  A
C2699      C2700   1.389       .  A
C2700      H2704   1.083       .  S
C2705      C2710   1.380       .  A
C2705      C2706   1.402       .  A
C2705      O2711   1.313       .  A
C2706      C2707   1.399       .  A
C2706      H2717   1.082       .  S
C2707      C2716   1.363       .  A
C2707      C2708   1.380       .  A
C2708      C2709   1.407       .  A
C2708      O2714   1.317       .  A
C2709      C2710   1.404       .  A
C2709      H2718   1.082       .  S
C2710      C2713   1.369       .  A
O2711      C2712   1.330       .  A
C2712      C2713   1.393       .  A
C2713      H2719   1.082       .  S
O2714      C2715   1.332       .  A
C2715      C2716   1.391       .  A
C2716      H2720   1.083       .  S
C2721      C2726   1.381       .  A
C2721      C2722   1.395       .  A
C2721      O2727   1.311       .  A
C2722      C2723   1.394       .  A
C2722      H2733   1.083       .  S
C2723      C2732   1.352       .  A
C2723      C2724   1.381       .  A
C2724      C2725   1.408       .  A
C2724      O2730   1.323       .  A
C2725      C2726   1.407       .  A
C2725      H2734   1.082       .  S
C2726      C2729   1.368       .  A
O2727      C2728   1.327       .  A
C2728      C2729   1.392       .  A
C2729      H2735   1.082       .  S
O2730      C2731   1.333       .  A
C2731      C2732   1.386       .  A
C2732      H2736   1.083       .  S
C2737      C2742   1.380       .  A
C2737      C2738   1.412       .  A
C2737      O2743   1.326       .  A
C2738      C2739   1.411       .  A
C2738      H2749   1.082       .  S
C2739      C2748   1.372       .  A
C2739      C2740   1.380       .  A
C2740      C2741   1.396       .  A
C2740      O2746   1.312       .  A
C2741      C2742   1.395       .  A
C2741      H2750   1.083       .  S
C2742      C2745   1.353       .  A
O2743      C2744   1.335       .  A
C2744      C2745   1.389       .  A
C2745      H2751   1.083       .  S
O2746      C2747   1.327       .  A
C2747      C2748   1.396       .  A
C2748      H2752   1.082       .  S
C2753      C2758   1.381       .  A
C2753      C2754   1.404       .  A
C2753      O2759   1.314       .  A
C2754      C2755   1.401       .  A
C2754      H2765   1.082       .  S
C2755      C2764   1.365       .  A
C2755      C2756   1.382       .  A
C2756      C2757   1.398       .  A
C2756      O2762   1.310       .  A
C2757      C2758   1.395       .  A
C2757      H2766   1.082       .  S
C2758      C2761   1.360       .  A
O2759      C2760   1.330       .  A
C2760      C2761   1.385       .  A
C2761      H2767   1.082       .  S
O2762      C2763   1.326       .  A
C2763      C2764   1.389       .  A
C2764      H2768   1.083       .  S
C2769      C2774   1.381       .  A
C2769      C2770   1.401       .  A
C2769      O2775   1.321       .  A
C2770      C2771   1.403   1_556  A
C2770      H2781   1.082       .  S
C2771      C2780   1.356       .  A
C2771      C2772   1.381       .  A
C2772      C2773   1.403   1_554  A
C2772      O2778   1.322       .  A
C2773      C2774   1.404       .  A
C2773      H2782   1.082       .  S
C2774      C2777   1.358       .  A
O2775      C2776   1.330       .  A
C2776      C2777   1.393       .  A
C2777      H2783   1.083       .  S
O2778      C2779   1.331       .  A
C2779      C2780   1.393       .  A
C2780      H2784   1.083       .  S
C2785      C2790   1.381       .  A
C2785      C2786   1.401       .  A
C2785      O2791   1.320       .  A
C2786      C2787   1.402       .  A
C2786      H2797   1.082       .  S
C2787      C2796   1.356       .  A
C2787      C2788   1.381       .  A
C2788      C2789   1.400       .  A
C2788      O2794   1.319       .  A
C2789      C2790   1.400       .  A
C2789      H2798   1.082       .  S
C2790      C2793   1.354       .  A
O2791      C2792   1.330       .  A
C2792      C2793   1.391       .  A
C2793      H2799   1.083       .  S
O2794      C2795   1.329       .  A
C2795      C2796   1.391       .  A
C2796      H2800   1.083       .  S
C2801      C2806   1.380       .  A
C2801      C2802   1.403       .  A
C2801      O2807   1.318       .  A
C2802      C2803   1.402       .  A
C2802      H2813   1.082       .  S
C2803      C2812   1.362       .  A
C2803      C2804   1.379       .  A
C2804      C2805   1.409       .  A
C2804      O2810   1.323       .  A
C2805      C2806   1.408       .  A
C2805      H2814   1.082       .  S
C2806      C2809   1.369       .  A
O2807      C2808   1.332       .  A
C2808      C2809   1.395       .  A
C2809      H2815   1.082       .  S
O2810      C2811   1.335       .  A
C2811      C2812   1.392       .  A
C2812      H2816   1.082       .  S
C2817      C2822   1.381       .  A
C2817      C2818   1.402       .  A
C2817      O2823   1.313       .  A
C2818      C2819   1.399       .  A
C2818      H2829   1.082       .  S
C2819      C2828   1.364       .  A
C2819      C2820   1.380       .  A
C2820      C2821   1.404       .  A
C2820      O2826   1.315       .  A
C2821      C2822   1.401       .  A
C2821      H2830   1.082       .  S
C2822      C2825   1.365       .  A
O2823      C2824   1.329       .  A
C2824      C2825   1.390       .  A
C2825      H2831   1.083       .  S
O2826      C2827   1.331       .  A
C2827      C2828   1.389       .  A
C2828      H2832   1.082       .  S
C2833      C2838   1.381       .  A
C2833      C2834   1.400       .  A
C2833      O2839   1.316       .  A
C2834      C2835   1.399       .  A
C2834      H2845   1.082       .  S
C2835      C2844   1.358       .  A
C2835      C2836   1.381       .  A
C2836      C2837   1.407       .  A
C2836      O2842   1.322       .  A
C2837      C2838   1.406       .  A
C2837      H2846   1.082       .  S
C2838      C2841   1.366       .  A
O2839      C2840   1.329       .  A
C2840      C2841   1.393       .  A
C2841      H2847   1.082       .  S
O2842      C2843   1.332       .  A
C2843      C2844   1.387       .  A
C2844      H2848   1.083       .  S
C2849      C2854   1.380       .  A
C2849      C2850   1.404       .  A
C2849      O2855   1.315       .  A
C2850      C2851   1.401       .  A
C2850      H2861   1.082       .  S
C2851      C2860   1.366       .  A
C2851      C2852   1.380       .  A
C2852      C2853   1.404       .  A
C2852      O2858   1.314       .  A
C2853      C2854   1.401       .  A
C2853      H2862   1.082       .  S
C2854      C2857   1.366       .  A
O2855      C2856   1.331       .  A
C2856      C2857   1.390       .  A
C2857      H2863   1.082       .  S
O2858      C2859   1.331       .  A
C2859      C2860   1.389       .  A
C2860      H2864   1.082       .  S
C2865      C2870   1.381   1_545  A
C2865      C2866   1.400       .  A
C2865      O2871   1.320       .  A
C2866      C2867   1.401       .  A
C2866      H2877   1.082       .  S
C2867      C2876   1.354       .  A
C2867      C2868   1.381   1_545  A
C2868      C2869   1.404       .  A
C2868      O2874   1.323       .  A
C2869      C2870   1.405       .  A
C2869      H2878   1.082       .  S
C2870      C2873   1.359       .  A
O2871      C2872   1.330   1_545  A
C2872      C2873   1.393       .  A
C2873      H2879   1.083       .  S
O2874      C2875   1.331   1_565  A
C2875      C2876   1.392       .  A
C2876      H2880   1.083       .  S
C2881      C2886   1.381   1_565  A
C2881      C2882   1.399       .  A
C2881      O2887   1.311       .  A
C2882      C2883   1.396       .  A
C2882      H2893   1.082       .  S
C2883      C2892   1.359       .  A
C2883      C2884   1.380   1_565  A
C2884      C2885   1.406       .  A
C2884      O2890   1.317       .  A
C2885      C2886   1.403       .  A
C2885      H2894   1.082       .  S
C2886      C2889   1.367       .  A
O2887      C2888   1.328   1_565  A
C2888      C2889   1.391       .  A
C2889      H2895   1.082       .  S
O2890      C2891   1.332       .  A
C2891      C2892   1.388   1_545  A
C2892      H2896   1.083       .  S
C2897      C2902   1.382       .  A
C2897      C2898   1.402       .  A
C2897      O2903   1.320       .  A
C2898      C2899   1.403       .  A
C2898      H2909   1.082       .  S
C2899      C2908   1.360       .  A
C2899      C2900   1.381       .  A
C2900      C2901   1.401       .  A
C2900      O2906   1.319       .  A
C2901      C2902   1.401       .  A
C2901      H2910   1.082       .  S
C2902      C2905   1.357       .  A
O2903      C2904   1.329       .  A
C2904      C2905   1.389       .  A
C2905      H2911   1.083       .  S
O2906      C2907   1.329       .  A
C2907      C2908   1.390       .  A
C2908      H2912   1.082       .  S
C2913      C2918   1.380   1_545  A
C2913      C2914   1.406       .  A
C2913      O2919   1.321       .  A
C2914      C2915   1.405       .  A
C2914      H2925   1.082       .  S
C2915      C2924   1.364       .  A
C2915      C2916   1.380   1_545  A
C2916      C2917   1.406       .  A
C2916      O2922   1.322       .  A
C2917      C2918   1.406       .  A
C2917      H2926   1.082       .  S
C2918      C2921   1.365       .  A
O2919      C2920   1.333       .  A
C2920      C2921   1.394   1_545  A
C2921      H2927   1.082       .  S
O2922      C2923   1.333       .  A
C2923      C2924   1.394   1_565  A
C2924      H2928   1.083       .  S
C2929      C2934   1.380       .  A
C2929      C2930   1.398       .  A
C2929      O2935   1.311       .  A
C2930      C2931   1.395       .  A
C2930      H2941   1.082       .  S
C2931      C2940   1.357       .  A
C2931      C2932   1.379       .  A
C2932      C2933   1.413       .  A
C2932      O2938   1.324       .  A
C2933      C2934   1.411       .  A
C2933      H2942   1.082       .  S
C2934      C2937   1.375       .  A
O2935      C2936   1.328       .  A
C2936      C2937   1.397       .  A
C2937      H2943   1.082       .  S
O2938      C2939   1.336       .  A
C2939      C2940   1.387       .  A
C2940      H2944   1.083       .  S
C2945      C2950   1.381       .  A
C2945      C2946   1.404       .  A
C2945      O2951   1.319       .  A
C2946      C2947   1.403       .  A
C2946      H2957   1.082       .  S
C2947      C2956   1.363       .  A
C2947      C2948   1.381       .  A
C2948      C2949   1.404       .  A
C2948      O2954   1.319       .  A
C2949      C2950   1.403       .  A
C2949      H2958   1.082       .  S
C2950      C2953   1.362       .  A
O2951      C2952   1.330       .  A
C2952      C2953   1.391       .  A
C2953      H2959   1.083       .  S
O2954      C2955   1.330       .  A
C2955      C2956   1.390       .  A
C2956      H2960   1.082       .  S
C2961      C2966   1.380   1_565  A
C2961      C2962   1.397       .  A
C2961      O2967   1.312       .  A
C2962      C2963   1.396       .  A
C2962      H2973   1.082       .  S
C2963      C2972   1.355       .  A
C2963      C2964   1.379   1_565  A
C2964      C2965   1.413       .  A
C2964      O2970   1.327       .  A
C2965      C2966   1.412       .  A
C2965      H2974   1.082       .  S
C2966      C2969   1.374       .  A
O2967      C2968   1.328       .  A
C2968      C2969   1.398   1_565  A
C2969      H2975   1.082       .  S
O2970      C2971   1.336   1_545  A
C2971      C2972   1.389       .  A
C2972      H2976   1.083       .  S
C2977      C2982   1.379   1_545  A
C2977      C2978   1.410       .  A
C2977      O2983   1.326       .  A
C2978      C2979   1.410       .  A
C2978      H2989   1.082       .  S
C2979      C2988   1.369       .  A
C2979      C2980   1.379   1_545  A
C2980      C2981   1.408       .  A
C2980      O2986   1.324       .  A
C2981      C2982   1.408       .  A
C2981      H2990   1.082       .  S
C2982      C2985   1.366       .  A
O2983      C2984   1.335       .  A
C2984      C2985   1.396   1_545  A
C2985      H2991   1.083       .  S
O2986      C2987   1.335       .  A
C2987      C2988   1.397   1_565  A
C2988      H2992   1.082       .  S
C2993      C2998   1.381       .  A
C2993      C2994   1.401       .  A
C2993      O2999   1.312       .  A
C2994      C2995   1.398       .  A
C2994      H3005   1.082       .  S
C2995      C3004   1.363       .  A
C2995      C2996   1.381       .  A
C2996      C2997   1.405       .  A
C2996      O3002   1.315       .  A
C2997      C2998   1.402       .  A
C2997      H3006   1.082       .  S
C2998      C3001   1.367       .  A
O2999      C3000   1.328       .  A
C3000      C3001   1.390       .  A
C3001      H3007   1.082       .  S
O3002      C3003   1.331       .  A
C3003      C3004   1.386       .  A
C3004      H3008   1.082       .  S
C3009      C3014   1.381   1_545  A
C3009      C3010   1.402       .  A
C3009      O3015   1.321       .  A
C3010      C3011   1.403   1_556  A
C3010      H3021   1.082       .  S
C3011      C3020   1.357       .  A
C3011      C3012   1.381   1_545  A
C3012      C3013   1.401   1_554  A
C3012      O3018   1.321       .  A
C3013      C3014   1.403       .  A
C3013      H3022   1.082       .  S
C3014      C3017   1.357       .  A
O3015      C3016   1.331       .  A
C3016      C3017   1.393   1_545  A
C3017      H3023   1.083       .  S
O3018      C3019   1.330   1_565  A
C3019      C3020   1.393       .  A
C3020      H3024   1.083       .  S
C3025      C3030   1.381   1_565  A
C3025      C3026   1.400       .  A
C3025      O3031   1.318       .  A
C3026      C3027   1.401       .  A
C3026      H3037   1.082       .  S
C3027      C3036   1.355       .  A
C3027      C3028   1.381   1_565  A
C3028      C3029   1.401       .  A
C3028      O3034   1.320       .  A
C3029      C3030   1.402       .  A
C3029      H3038   1.082       .  S
C3030      C3033   1.357       .  A
O3031      C3032   1.329   1_565  A
C3032      C3033   1.392       .  A
C3033      H3039   1.083       .  S
O3034      C3035   1.330       .  A
C3035      C3036   1.392   1_545  A
C3036      H3040   1.083       .  S
C3041      C3046   1.381       .  A
C3041      C3042   1.402       .  A
C3041      O3047   1.317       .  A
C3042      C3043   1.401       .  A
C3042      H3053   1.082       .  S
C3043      C3052   1.361       .  A
C3043      C3044   1.381       .  A
C3044      C3045   1.405       .  A
C3044      O3050   1.319       .  A
C3045      C3046   1.403       .  A
C3045      H3054   1.082       .  S
C3046      C3049   1.362       .  A
O3047      C3048   1.329       .  A
C3048      C3049   1.391       .  A
C3049      H3055   1.083       .  S
O3050      C3051   1.332       .  A
C3051      C3052   1.389       .  A
C3052      H3056   1.082       .  S
C3057      C3062   1.380   1_565  A
C3057      C3058   1.402       .  A
C3057      O3063   1.319       .  A
C3058      C3059   1.402       .  A
C3058      H3069   1.082       .  S
C3059      C3068   1.360       .  A
C3059      C3060   1.380   1_565  A
C3060      C3061   1.408       .  A
C3060      O3066   1.325       .  A
C3061      C3062   1.408       .  A
C3061      H3070   1.082       .  S
C3062      C3065   1.367       .  A
O3063      C3064   1.331       .  A
C3064      C3065   1.395   1_565  A
C3065      H3071   1.082       .  S
O3066      C3067   1.334   1_545  A
C3067      C3068   1.393       .  A
C3068      H3072   1.083       .  S
C3073      C3078   1.381   1_545  A
C3073      C3074   1.400       .  A
C3073      O3079   1.319       .  A
C3074      C3075   1.401       .  A
C3074      H3085   1.082       .  S
C3075      C3084   1.355       .  A
C3075      C3076   1.381   1_545  A
C3076      C3077   1.401       .  A
C3076      O3082   1.320       .  A
C3077      C3078   1.402       .  A
C3077      H3086   1.082       .  S
C3078      C3081   1.357       .  A
O3079      C3080   1.329   1_545  A
C3080      C3081   1.392       .  A
C3081      H3087   1.083       .  S
O3082      C3083   1.330   1_565  A
C3083      C3084   1.391       .  A
C3084      H3088   1.083       .  S
C3089      C3094   1.381   1_565  A
C3089      C3090   1.403       .  A
C3089      O3095   1.320       .  A
C3090      C3091   1.403   1_554  A
C3090      H3101   1.082       .  S
C3091      C3100   1.360       .  A
C3091      C3092   1.381   1_565  A
C3092      C3093   1.401   1_556  A
C3092      O3098   1.318       .  A
C3093      C3094   1.401       .  A
C3093      H3102   1.082   1_554  S
C3094      C3097   1.357       .  A
O3095      C3096   1.331   1_565  A
C3096      C3097   1.391       .  A
C3097      H3103   1.083       .  S
O3098      C3099   1.330   1_545  A
C3099      C3100   1.393       .  A
C3100      H3104   1.083       .  S
C3105      C3110   1.379   1_565  A
C3105      C3106   1.408   1_655  A
C3105      O3111   1.322       .  A
C3106      C3107   1.407       .  A
C3106      H3117   1.082       .  S
C3107      C3116   1.368       .  A
C3107      C3108   1.380   1_565  A
C3108      C3109   1.404       .  A
C3108      O3114   1.319       .  A
C3109      C3110   1.403   1_455  A
C3109      H3118   1.082       .  S
C3110      C3113   1.364       .  A
O3111      C3112   1.334       .  A
C3112      C3113   1.393   1_565  A
C3113      H3119   1.083       .  S
O3114      C3115   1.332       .  A
C3115      C3116   1.395   1_545  A
C3116      H3120   1.083       .  S
C3121      C3126   1.379       .  A
C3121      C3122   1.404       .  A
C3121      O3127   1.318       .  A
C3122      C3123   1.403       .  A
C3122      H3133   1.083       .  S
C3123      C3132   1.361       .  A
C3123      C3124   1.379       .  A
C3124      C3125   1.410   1_545  A
C3124      O3130   1.325   1_545  A
C3125      C3126   1.409   1_565  A
C3125      H3134   1.082       .  S
C3126      C3129   1.371   1_545  A
O3127      C3128   1.332       .  A
C3128      C3129   1.395   1_545  A
C3129      H3135   1.082       .  S
O3130      C3131   1.334   1_565  A
C3131      C3132   1.393       .  A
C3132      H3136   1.083       .  S
C3137      C3142   1.379   1_566  A
C3137      C3138   1.409   1_655  A
C3137      O3143   1.323   1_556  A
C3138      C3139   1.408       .  A
C3138      H3149   1.082       .  S
C3139      C3148   1.369       .  A
C3139      C3140   1.380   1_565  A
C3140      C3141   1.403       .  A
C3140      O3146   1.318       .  A
C3141      C3142   1.402   1_456  A
C3141      H3150   1.082       .  S
C3142      C3145   1.362       .  A
O3143      C3144   1.335       .  A
C3144      C3145   1.392   1_565  A
C3145      H3151   1.083       .  S
O3146      C3147   1.331       .  A
C3147      C3148   1.396   1_545  A
C3148      H3152   1.082       .  S
C3153      C3158   1.381   1_565  A
C3153      C3154   1.401       .  A
C3153      O3159   1.318       .  A
C3154      C3155   1.401       .  A
C3154      H3165   1.082       .  S
C3155      C3164   1.356       .  A
C3155      C3156   1.380   1_565  A
C3156      C3157   1.403       .  A
C3156      O3162   1.321       .  A
C3157      C3158   1.404       .  A
C3157      H3166   1.082       .  S
C3158      C3161   1.360       .  A
O3159      C3160   1.330   1_565  A
C3160      C3161   1.393       .  A
C3161      H3167   1.083       .  S
O3162      C3163   1.331       .  A
C3163      C3164   1.392   1_545  A
C3164      H3168   1.083       .  S
C3169      C3174   1.380   1_545  A
C3169      C3170   1.402       .  A
C3169      O3175   1.319       .  A
C3170      C3171   1.402       .  A
C3170      H3181   1.082       .  S
C3171      C3180   1.358       .  A
C3171      C3172   1.380   1_545  A
C3172      C3173   1.403       .  A
C3172      O3178   1.320       .  A
C3173      C3174   1.403       .  A
C3173      H3182   1.082       .  S
C3174      C3177   1.360       .  A
O3175      C3176   1.331   1_545  A
C3176      C3177   1.392       .  A
C3177      H3183   1.082       .  S
O3178      C3179   1.331   1_565  A
C3179      C3180   1.393       .  A
C3180      H3184   1.083       .  S
C3185      C3190   1.380       .  A
C3185      C3186   1.400       .  A
C3185      O3191   1.317       .  A
C3186      C3187   1.399       .  A
C3186      H3197   1.082       .  S
C3187      C3196   1.356       .  A
C3187      C3188   1.380       .  A
C3188      C3189   1.407   1_545  A
C3188      O3194   1.323   1_545  A
C3189      C3190   1.407   1_565  A
C3189      H3198   1.082       .  S
C3190      C3193   1.366   1_545  A
O3191      C3192   1.330       .  A
C3192      C3193   1.394   1_545  A
C3193      H3199   1.082       .  S
O3194      C3195   1.333   1_565  A
C3195      C3196   1.391       .  A
C3196      H3200   1.083       .  S
C3201      C3206   1.380       .  A
C3201      C3202   1.408       .  A
C3201      O3207   1.324       .  A
C3202      C3203   1.408       .  A
C3202      H3213   1.082       .  S
C3203      C3212   1.368       .  A
C3203      C3204   1.380       .  A
C3204      C3205   1.402       .  A
C3204      O3210   1.318       .  A
C3205      C3206   1.401       .  A
C3205      H3214   1.082       .  S
C3206      C3209   1.359       .  A
O3207      C3208   1.333       .  A
C3208      C3209   1.390       .  A
C3209      H3215   1.083       .  S
O3210      C3211   1.330       .  A
C3211      C3212   1.393       .  A
C3212      H3216   1.082       .  S
C3217      C3222   1.380       .  A
C3217      C3218   1.405       .  A
C3217      O3223   1.322       .  A
C3218      C3219   1.405       .  A
C3218      H3229   1.082       .  S
C3219      C3228   1.361       .  A
C3219      C3220   1.381       .  A
C3220      C3221   1.399       .  A
C3220      O3226   1.318       .  A
C3221      C3222   1.400       .  A
C3221      H3230   1.082       .  S
C3222      C3225   1.355       .  A
O3223      C3224   1.332       .  A
C3224      C3225   1.391       .  A
C3225      H3231   1.083       .  S
O3226      C3227   1.329       .  A
C3227      C3228   1.394       .  A
C3228      H3232   1.083       .  S
C3233      C3238   1.380       .  A
C3233      C3234   1.405       .  A
C3233      O3239   1.323       .  A
C3234      C3235   1.406       .  A
C3234      H3245   1.082       .  S
C3235      C3244   1.361       .  A
C3235      C3236   1.381       .  A
C3236      C3237   1.398       .  A
C3236      O3242   1.317       .  A
C3237      C3238   1.399       .  A
C3237      H3246   1.082       .  S
C3238      C3241   1.353       .  A
O3239      C3240   1.332       .  A
C3240      C3241   1.391       .  A
C3241      H3247   1.083       .  S
O3242      C3243   1.328       .  A
C3243      C3244   1.394       .  A
C3244      H3248   1.083       .  S
C3249      C3254   1.381       .  A
C3249      C3250   1.404       .  A
C3249      O3255   1.319       .  A
C3250      C3251   1.404       .  A
C3250      H3261   1.082       .  S
C3251      C3260   1.362       .  A
C3251      C3252   1.381       .  A
C3252      C3253   1.400       .  A
C3252      O3258   1.317       .  A
C3253      C3254   1.400       .  A
C3253      H3262   1.082       .  S
C3254      C3257   1.358       .  A
O3255      C3256   1.330       .  A
C3256      C3257   1.387       .  A
C3257      H3263   1.083       .  S
O3258      C3259   1.329       .  A
C3259      C3260   1.392       .  A
C3260      H3264   1.083       .  S
C3265      C3270   1.379       .  A
C3265      C3266   1.405       .  A
C3265      O3271   1.319       .  A
C3266      C3267   1.404   1_655  A
C3266      H3277   1.082       .  S
C3267      C3276   1.365       .  A
C3267      C3268   1.380       .  A
C3268      C3269   1.405       .  A
C3268      O3274   1.319       .  A
C3269      C3270   1.403   1_455  A
C3269      H3278   1.082       .  S
C3270      C3273   1.364       .  A
O3271      C3272   1.332       .  A
C3272      C3273   1.393       .  A
C3273      H3279   1.083       .  S
O3274      C3275   1.332       .  A
C3275      C3276   1.393       .  A
C3276      H3280   1.082       .  S
C3281      C3286   1.380       .  A
C3281      C3282   1.404       .  A
C3281      O3287   1.317       .  A
C3282      C3283   1.402       .  A
C3282      H3293   1.082       .  S
C3283      C3292   1.364       .  A
C3283      C3284   1.381       .  A
C3284      C3285   1.404       .  A
C3284      O3290   1.317       .  A
C3285      C3286   1.402       .  A
C3285      H3294   1.082       .  S
C3286      C3289   1.364       .  A
O3287      C3288   1.331       .  A
C3288      C3289   1.392       .  A
C3289      H3295   1.083       .  S
O3290      C3291   1.329       .  A
C3291      C3292   1.389       .  A
C3292      H3296   1.083       .  S
C3297      C3302   1.379       .  A
C3297      C3298   1.412       .  A
C3297      O3303   1.325       .  A
C3298      C3299   1.411       .  A
C3298      H3309   1.082       .  S
C3299      C3308   1.373       .  A
C3299      C3300   1.379       .  A
C3300      C3301   1.402       .  A
C3300      O3306   1.316       .  A
C3301      C3302   1.400       .  A
C3301      H3310   1.082       .  S
C3302      C3305   1.360       .  A
O3303      C3304   1.336       .  A
C3304      C3305   1.391       .  A
C3305      H3311   1.083       .  S
O3306      C3307   1.331       .  A
C3307      C3308   1.396       .  A
C3308      H3312   1.082       .  S
C3313      C3318   1.379       .  A
C3313      C3314   1.406       .  A
C3313      O3319   1.323       .  A
C3314      C3315   1.406   1_655  A
C3314      H3325   1.082       .  S
C3315      C3324   1.364       .  A
C3315      C3316   1.379       .  A
C3316      C3317   1.411       .  A
C3316      O3322   1.327       .  A
C3317      C3318   1.411   1_455  A
C3317      H3326   1.082       .  S
C3318      C3321   1.370       .  A
O3319      C3320   1.333       .  A
C3320      C3321   1.397       .  A
C3321      H3327   1.082       .  S
O3322      C3323   1.337       .  A
C3323      C3324   1.395       .  A
C3324      H3328   1.082       .  S
C3329      C3334   1.380       .  A
C3329      C3330   1.402       .  A
C3329      O3335   1.314       .  A
C3330      C3331   1.399       .  A
C3330      H3341   1.082       .  S
C3331      C3340   1.363       .  A
C3331      C3332   1.380       .  A
C3332      C3333   1.402       .  A
C3332      O3338   1.313       .  A
C3333      C3334   1.400       .  A
C3333      H3342   1.082       .  S
C3334      C3337   1.363       .  A
O3335      C3336   1.330       .  A
C3336      C3337   1.391       .  A
C3337      H3343   1.083       .  S
O3338      C3339   1.330       .  A
C3339      C3340   1.389       .  A
C3340      H3344   1.083       .  S
C3345      C3350   1.380       .  A
C3345      C3346   1.404   1_556  A
C3345      O3351   1.323       .  A
C3346      C3347   1.405       .  A
C3346      H3357   1.082       .  S
C3347      C3356   1.360       .  A
C3347      C3348   1.380       .  A
C3348      C3349   1.404       .  A
C3348      O3354   1.323       .  A
C3349      C3350   1.405   1_554  A
C3349      H3358   1.082       .  S
C3350      C3353   1.360       .  A
O3351      C3352   1.332       .  A
C3352      C3353   1.394       .  A
C3353      H3359   1.083       .  S
O3354      C3355   1.332       .  A
C3355      C3356   1.394       .  A
C3356      H3360   1.083       .  S
C3361      C3366   1.381       .  A
C3361      C3362   1.402       .  A
C3361      O3367   1.320       .  A
C3362      C3363   1.402       .  A
C3362      H3373   1.082       .  S
C3363      C3372   1.360       .  A
C3363      C3364   1.381       .  A
C3364      C3365   1.405       .  A
C3364      O3370   1.322       .  A
C3365      C3366   1.405       .  A
C3365      H3374   1.082       .  S
C3366      C3369   1.363       .  A
O3367      C3368   1.330       .  A
C3368      C3369   1.392       .  A
C3369      H3375   1.083       .  S
O3370      C3371   1.332       .  A
C3371      C3372   1.391       .  A
C3372      H3376   1.083       .  S
C3377      C3382   1.380       .  A
C3377      C3378   1.398       .  A
C3377      O3383   1.314       .  A
C3378      C3379   1.397       .  A
C3378      H3389   1.082       .  S
C3379      C3388   1.356       .  A
C3379      C3380   1.379       .  A
C3380      C3381   1.413       .  A
C3380      O3386   1.327       .  A
C3381      C3382   1.413       .  A
C3381      H3390   1.082       .  S
C3382      C3385   1.375       .  A
O3383      C3384   1.328       .  A
C3384      C3385   1.399       .  A
C3385      H3391   1.082       .  S
O3386      C3387   1.336       .  A
C3387      C3388   1.390       .  A
C3388      H3392   1.083       .  S
C3393      C3398   1.381       .  A
C3393      C3394   1.404       .  A
C3393      O3399   1.314       .  A
C3394      C3395   1.400       .  A
C3394      H3405   1.082       .  S
C3395      C3404   1.365       .  A
C3395      C3396   1.381       .  A
C3396      C3397   1.403       .  A
C3396      O3402   1.313       .  A
C3397      C3398   1.400       .  A
C3397      H3406   1.082       .  S
C3398      C3401   1.365       .  A
O3399      C3400   1.330       .  A
C3400      C3401   1.389       .  A
C3401      H3407   1.082       .  S
O3402      C3403   1.329       .  A
C3403      C3404   1.389       .  A
C3404      H3408   1.082       .  S
C3409      C3414   1.381       .  A
C3409      C3410   1.402       .  A
C3409      O3415   1.312       .  A
C3410      C3411   1.398       .  A
C3410      H3421   1.082       .  S
C3411      C3420   1.364       .  A
C3411      C3412   1.380       .  A
C3412      C3413   1.402       .  A
C3412      O3418   1.312       .  A
C3413      C3414   1.399       .  A
C3413      H3422   1.082       .  S
C3414      C3417   1.364       .  A
O3415      C3416   1.330       .  A
C3416      C3417   1.388       .  A
C3417      H3423   1.082       .  S
O3418      C3419   1.330       .  A
C3419      C3420   1.388       .  A
C3420      H3424   1.082       .  S
C3425      C3430   1.380       .  A
C3425      C3426   1.404       .  A
C3425      O3431   1.314       .  A
C3426      C3427   1.401       .  A
C3426      H3437   1.082       .  S
C3427      C3436   1.366       .  A
C3427      C3428   1.380       .  A
C3428      C3429   1.404       .  A
C3428      O3434   1.314       .  A
C3429      C3430   1.400       .  A
C3429      H3438   1.082       .  S
C3430      C3433   1.365       .  A
O3431      C3432   1.331       .  A
C3432      C3433   1.390       .  A
C3433      H3439   1.083       .  S
O3434      C3435   1.331       .  A
C3435      C3436   1.391       .  A
C3436      H3440   1.082       .  S
C3441      C3446   1.380       .  A
C3441      C3442   1.403       .  A
C3441      O3447   1.321       .  A
C3442      C3443   1.404       .  A
C3442      H3453   1.082       .  S
C3443      C3452   1.359       .  A
C3443      C3444   1.381       .  A
C3444      C3445   1.402       .  A
C3444      O3450   1.321       .  A
C3445      C3446   1.402       .  A
C3445      H3454   1.082       .  S
C3446      C3449   1.357       .  A
O3447      C3448   1.331       .  A
C3448      C3449   1.392       .  A
C3449      H3455   1.083       .  S
O3450      C3451   1.331       .  A
C3451      C3452   1.394       .  A
C3452      H3456   1.083       .  S
C3457      C3462   1.380       .  A
C3457      C3458   1.405       .  A
C3457      O3463   1.321       .  A
C3458      C3459   1.405   1_655  A
C3458      H3469   1.082       .  S
C3459      C3468   1.362       .  A
C3459      C3460   1.380       .  A
C3460      C3461   1.405   1_455  A
C3460      O3466   1.322       .  A
C3461      C3462   1.405       .  A
C3461      H3470   1.082   1_655  S
C3462      C3465   1.363       .  A
O3463      C3464   1.333       .  A
C3464      C3465   1.394       .  A
C3465      H3471   1.082       .  S
O3466      C3467   1.333       .  A
C3467      C3468   1.394       .  A
C3468      H3472   1.082       .  S
C3473      C3478   1.380       .  A
C3473      C3474   1.402       .  A
C3473      O3479   1.312       .  A
C3474      C3475   1.399       .  A
C3474      H3485   1.082       .  S
C3475      C3484   1.363       .  A
C3475      C3476   1.381       .  A
C3476      C3477   1.402       .  A
C3476      O3482   1.313       .  A
C3477      C3478   1.399       .  A
C3477      H3486   1.082       .  S
C3478      C3481   1.365       .  A
O3479      C3480   1.330       .  A
C3480      C3481   1.389       .  A
C3481      H3487   1.082       .  S
O3482      C3483   1.328       .  A
C3483      C3484   1.387       .  A
C3484      H3488   1.083       .  S
C3489      C3494   1.380       .  A
C3489      C3490   1.409       .  A
C3489      O3495   1.323       .  A
C3490      C3491   1.408       .  A
C3490      H3501   1.082       .  S
C3491      C3500   1.370       .  A
C3491      C3492   1.380       .  A
C3492      C3493   1.402       .  A
C3492      O3498   1.317       .  A
C3493      C3494   1.401       .  A
C3493      H3502   1.082       .  S
C3494      C3497   1.360       .  A
O3495      C3496   1.334       .  A
C3496      C3497   1.391       .  A
C3497      H3503   1.083       .  S
O3498      C3499   1.331       .  A
C3499      C3500   1.395       .  A
C3500      H3504   1.082       .  S
C3505      C3510   1.379       .  A
C3505      C3506   1.406       .  A
C3505      O3511   1.322       .  A
C3506      C3507   1.406   1_455  A
C3506      H3517   1.082       .  S
C3507      C3516   1.364       .  A
C3507      C3508   1.379       .  A
C3508      C3509   1.406   1_655  A
C3508      O3514   1.323       .  A
C3509      C3510   1.406       .  A
C3509      H3518   1.082       .  S
C3510      C3513   1.365       .  A
O3511      C3512   1.333       .  A
C3512      C3513   1.394       .  A
C3513      H3519   1.082       .  S
O3514      C3515   1.333       .  A
C3515      C3516   1.395       .  A
C3516      H3520   1.083       .  S
C3521      C3526   1.380       .  A
C3521      C3522   1.405       .  A
C3521      O3527   1.315       .  A
C3522      C3523   1.402       .  A
C3522      H3533   1.082       .  S
C3523      C3532   1.367       .  A
C3523      C3524   1.380       .  A
C3524      C3525   1.404       .  A
C3524      O3530   1.315       .  A
C3525      C3526   1.401       .  A
C3525      H3534   1.082   1_554  S
C3526      C3529   1.367       .  A
O3527      C3528   1.331       .  A
C3528      C3529   1.389       .  A
C3529      H3535   1.082   1_554  S
O3530      C3531   1.330       .  A
C3531      C3532   1.390       .  A
C3532      H3536   1.082       .  S
C3537      C3542   1.380       .  A
C3537      C3538   1.405       .  A
C3537      O3543   1.315       .  A
C3538      C3539   1.402       .  A
C3538      H3549   1.082       .  S
C3539      C3548   1.367       .  A
C3539      C3540   1.380       .  A
C3540      C3541   1.403       .  A
C3540      O3546   1.314       .  A
C3541      C3542   1.399       .  A
C3541      H3550   1.082       .  S
C3542      C3545   1.364       .  A
O3543      C3544   1.332       .  A
C3544      C3545   1.390       .  A
C3545      H3551   1.082       .  S
O3546      C3547   1.331       .  A
C3547      C3548   1.392       .  A
C3548      H3552   1.082       .  S
C3553      C3558   1.380       .  A
C3553      C3554   1.403       .  A
C3553      O3559   1.316       .  A
C3554      C3555   1.401       .  A
C3554      H3565   1.082       .  S
C3555      C3564   1.362       .  A
C3555      C3556   1.381       .  A
C3556      C3557   1.399       .  A
C3556      O3562   1.313       .  A
C3557      C3558   1.398       .  A
C3557      H3566   1.082       .  S
C3558      C3561   1.359       .  A
O3559      C3560   1.331       .  A
C3560      C3561   1.389       .  A
C3561      H3567   1.083       .  S
O3562      C3563   1.329       .  A
C3563      C3564   1.391       .  A
C3564      H3568   1.083       .  S
C3569      C3574   1.379       .  A
C3569      C3570   1.413       .  A
C3569      O3575   1.328       .  A
C3570      C3571   1.413       .  A
C3570      H3581   1.082       .  S
C3571      C3580   1.373       .  A
C3571      C3572   1.380       .  A
C3572      C3573   1.397       .  A
C3572      O3578   1.314       .  A
C3573      C3574   1.396       .  A
C3573      H3582   1.082       .  S
C3574      C3577   1.353       .  A
O3575      C3576   1.337       .  A
C3576      C3577   1.389       .  A
C3577      H3583   1.083       .  S
O3578      C3579   1.328       .  A
C3579      C3580   1.398       .  A
C3580      H3584   1.082       .  S
C3585      C3590   1.380       .  A
C3585      C3586   1.405       .  A
C3585      O3591   1.317       .  A
C3586      C3587   1.402       .  A
C3586      H3597   1.082       .  S
C3587      C3596   1.367       .  A
C3587      C3588   1.380       .  A
C3588      C3589   1.404       .  A
C3588      O3594   1.315       .  A
C3589      C3590   1.402       .  A
C3589      H3598   1.082       .  S
C3590      C3593   1.365       .  A
O3591      C3592   1.331       .  A
C3592      C3593   1.390       .  A
C3593      H3599   1.083       .  S
O3594      C3595   1.331       .  A
C3595      C3596   1.391       .  A
C3596      H3600   1.082       .  S
C3601      C3606   1.381       .  A
C3601      C3602   1.403       .  A
C3601      O3607   1.316       .  A
C3602      C3603   1.401       .  A
C3602      H3613   1.082       .  S
C3603      C3612   1.363       .  A
C3603      C3604   1.381       .  A
C3604      C3605   1.400       .  A
C3604      O3610   1.314       .  A
C3605      C3606   1.398       .  A
C3605      H3614   1.082       .  S
C3606      C3609   1.361       .  A
O3607      C3608   1.329       .  A
C3608      C3609   1.387       .  A
C3609      H3615   1.083       .  S
O3610      C3611   1.328       .  A
C3611      C3612   1.391       .  A
C3612      H3616   1.083       .  S
C3617      C3622   1.380       .  A
C3617      C3618   1.405       .  A
C3617      O3623   1.316       .  A
C3618      C3619   1.401       .  A
C3618      H3629   1.082       .  S
C3619      C3628   1.366       .  A
C3619      C3620   1.380       .  A
C3620      C3621   1.406       .  A
C3620      O3626   1.317       .  A
C3621      C3622   1.403       .  A
C3621      H3630   1.082       .  S
C3622      C3625   1.367       .  A
O3623      C3624   1.331       .  A
C3624      C3625   1.390       .  A
C3625      H3631   1.082       .  S
O3626      C3627   1.332       .  A
C3627      C3628   1.391       .  A
C3628      H3632   1.082       .  S
C3633      C3638   1.381       .  A
C3633      C3634   1.399       .  A
C3633      O3639   1.320       .  A
C3634      C3635   1.401       .  A
C3634      H3645   1.082       .  S
C3635      C3644   1.352       .  A
C3635      C3636   1.381       .  A
C3636      C3637   1.401       .  A
C3636      O3642   1.322       .  A
C3637      C3638   1.404       .  A
C3637      H3646   1.082       .  S
C3638      C3641   1.355       .  A
O3639      C3640   1.329       .  A
C3640      C3641   1.393       .  A
C3641      H3647   1.083       .  S
O3642      C3643   1.330       .  A
C3643      C3644   1.391       .  A
C3644      H3648   1.083       .  S
C3649      C3654   1.381       .  A
C3649      C3650   1.402       .  A
C3649      O3655   1.320       .  A
C3650      C3651   1.403       .  A
C3650      H3661   1.082       .  S
C3651      C3660   1.356       .  A
C3651      C3652   1.381       .  A
C3652      C3653   1.403       .  A
C3652      O3658   1.322       .  A
C3653      C3654   1.404       .  A
C3653      H3662   1.082       .  S
C3654      C3657   1.359       .  A
O3655      C3656   1.331       .  A
C3656      C3657   1.393       .  A
C3657      H3663   1.082       .  S
O3658      C3659   1.331       .  A
C3659      C3660   1.393       .  A
C3660      H3664   1.083       .  S
C3665      C3670   1.382       .  A
C3665      C3666   1.401       .  A
C3665      O3671   1.319       .  A
C3666      C3667   1.401       .  A
C3666      H3677   1.082   1_556  S
C3667      C3676   1.357   1_556  A
C3667      C3668   1.381       .  A
C3668      C3669   1.401       .  A
C3668      O3674   1.319       .  A
C3669      C3670   1.402       .  A
C3669      H3678   1.082       .  S
C3670      C3673   1.357       .  A
O3671      C3672   1.329       .  A
C3672      C3673   1.389       .  A
C3673      H3679   1.083       .  S
O3674      C3675   1.330       .  A
C3675      C3676   1.390   1_556  A
C3676      H3680   1.083       .  S
C3681      C3686   1.380       .  A
C3681      C3682   1.405       .  A
C3681      O3687   1.323       .  A
C3682      C3683   1.406   1_655  A
C3682      H3693   1.082       .  S
C3683      C3692   1.361       .  A
C3683      C3684   1.380       .  A
C3684      C3685   1.406   1_455  A
C3684      O3690   1.325       .  A
C3685      C3686   1.406       .  A
C3685      H3694   1.082       .  S
C3686      C3689   1.361       .  A
O3687      C3688   1.332       .  A
C3688      C3689   1.394       .  A
C3689      H3695   1.083       .  S
O3690      C3691   1.334       .  A
C3691      C3692   1.395       .  A
C3692      H3696   1.082       .  S
C3697      C3702   1.380       .  A
C3697      C3698   1.404       .  A
C3697      O3703   1.316       .  A
C3698      C3699   1.402       .  A
C3698      H3709   1.082       .  S
C3699      C3708   1.366       .  A
C3699      C3700   1.381       .  A
C3700      C3701   1.401       .  A
C3700      O3706   1.313       .  A
C3701      C3702   1.397       .  A
C3701      H3710   1.082       .  S
C3702      C3705   1.360       .  A
O3703      C3704   1.331       .  A
C3704      C3705   1.388       .  A
C3705      H3711   1.082       .  S
O3706      C3707   1.329       .  A
C3707      C3708   1.390       .  A
C3708      H3712   1.082       .  S
C3713      C3718   1.381       .  A
C3713      C3714   1.405       .  A
C3713      O3719   1.320       .  A
C3714      C3715   1.404       .  A
C3714      H3725   1.082       .  S
C3715      C3724   1.364       .  A
C3715      C3716   1.381       .  A
C3716      C3717   1.402       .  A
C3716      O3722   1.317       .  A
C3717      C3718   1.401       .  A
C3717      H3726   1.082       .  S
C3718      C3721   1.360       .  A
O3719      C3720   1.331       .  A
C3720      C3721   1.388       .  A
C3721      H3727   1.082       .  S
O3722      C3723   1.330       .  A
C3723      C3724   1.390       .  A
C3724      H3728   1.082       .  S
C3729      C3734   1.379       .  A
C3729      C3730   1.410       .  A
C3729      O3735   1.323       .  A
C3730      C3731   1.408       .  A
C3730      H3741   1.082       .  S
C3731      C3740   1.370       .  A
C3731      C3732   1.380       .  A
C3732      C3733   1.402       .  A
C3732      O3738   1.317       .  A
C3733      C3734   1.400       .  A
C3733      H3742   1.082       .  S
C3734      C3737   1.361       .  A
O3735      C3736   1.335       .  A
C3736      C3737   1.391       .  A
C3737      H3743   1.082       .  S
O3738      C3739   1.330       .  A
C3739      C3740   1.395       .  A
C3740      H3744   1.082       .  S
C3745      C3750   1.379       .  A
C3745      C3746   1.407   1_455  A
C3745      O3751   1.322       .  A
C3746      C3747   1.406       .  A
C3746      H3757   1.082   1_655  S
C3747      C3756   1.365       .  A
C3747      C3748   1.379       .  A
C3748      C3749   1.408       .  A
C3748      O3754   1.324       .  A
C3749      C3750   1.408   1_655  A
C3749      H3758   1.082       .  S
C3750      C3753   1.368       .  A
O3751      C3752   1.334       .  A
C3752      C3753   1.396       .  A
C3753      H3759   1.082       .  S
O3754      C3755   1.334       .  A
C3755      C3756   1.395       .  A
C3756      H3760   1.082       .  S
C3761      C3766   1.380       .  A
C3761      C3762   1.403       .  A
C3761      O3767   1.313       .  A
C3762      C3763   1.399       .  A
C3762      H3773   1.082       .  S
C3763      C3772   1.366       .  A
C3763      C3764   1.380       .  A
C3764      C3765   1.406       .  A
C3764      O3770   1.315       .  A
C3765      C3766   1.403       .  A
C3765      H3774   1.082       .  S
C3766      C3769   1.369       .  A
O3767      C3768   1.330       .  A
C3768      C3769   1.391       .  A
C3769      H3775   1.082       .  S
O3770      C3771   1.332       .  A
C3771      C3772   1.388       .  A
C3772      H3776   1.082       .  S
C3777      C3782   1.380       .  A
C3777      C3778   1.404       .  A
C3777      O3783   1.315       .  A
C3778      C3779   1.401       .  A
C3778      H3789   1.082       .  S
C3779      C3788   1.364       .  A
C3779      C3780   1.380       .  A
C3780      C3781   1.404       .  A
C3780      O3786   1.316       .  A
C3781      C3782   1.401       .  A
C3781      H3790   1.082       .  S
C3782      C3785   1.366       .  A
O3783      C3784   1.332       .  A
C3784      C3785   1.391       .  A
C3785      H3791   1.082       .  S
O3786      C3787   1.331       .  A
C3787      C3788   1.392       .  A
C3788      H3792   1.083       .  S
C3793      C3798   1.380       .  A
C3793      C3794   1.402       .  A
C3793      O3799   1.316       .  A
C3794      C3795   1.400       .  A
C3794      H3805   1.082       .  S
C3795      C3804   1.361       .  A
C3795      C3796   1.380       .  A
C3796      C3797   1.401       .  A
C3796      O3802   1.315       .  A
C3797      C3798   1.399       .  A
C3797      H3806   1.082       .  S
C3798      C3801   1.360       .  A
O3799      C3800   1.330       .  A
C3800      C3801   1.390       .  A
C3801      H3807   1.083       .  S
O3802      C3803   1.330       .  A
C3803      C3804   1.390       .  A
C3804      H3808   1.083       .  S
C3809      C3814   1.381       .  A
C3809      C3810   1.402       .  A
C3809      O3815   1.321       .  A
C3810      C3811   1.402       .  A
C3810      H3821   1.082       .  S
C3811      C3820   1.359       .  A
C3811      C3812   1.381       .  A
C3812      C3813   1.404       .  A
C3812      O3818   1.322       .  A
C3813      C3814   1.405       .  A
C3813      H3822   1.082       .  S
C3814      C3817   1.361       .  A
O3815      C3816   1.330       .  A
C3816      C3817   1.392       .  A
C3817      H3823   1.083       .  S
O3818      C3819   1.331       .  A
C3819      C3820   1.390       .  A
C3820      H3824   1.083       .  S
C3825      C3830   1.380       .  A
C3825      C3826   1.399       .  A
C3825      O3831   1.313       .  A
C3826      C3827   1.397       .  A
C3826      H3837   1.082       .  S
C3827      C3836   1.357       .  A
C3827      C3828   1.380       .  A
C3828      C3829   1.409       .  A
C3828      O3834   1.323       .  A
C3829      C3830   1.408       .  A
C3829      H3838   1.082       .  S
C3830      C3833   1.370       .  A
O3831      C3832   1.329       .  A
C3832      C3833   1.395       .  A
C3833      H3839   1.082       .  S
O3834      C3835   1.334       .  A
C3835      C3836   1.390       .  A
C3836      H3840   1.083       .  S
C3841      C3846   1.379       .  A
C3841      C3842   1.407       .  A
C3841      O3847   1.320       .  A
C3842      C3843   1.406       .  A
C3842      H3853   1.082       .  S
C3843      C3852   1.368       .  A
C3843      C3844   1.379       .  A
C3844      C3845   1.405       .  A
C3844      O3850   1.319       .  A
C3845      C3846   1.404       .  A
C3845      H3854   1.082       .  S
C3846      C3849   1.366       .  A
O3847      C3848   1.333       .  A
C3848      C3849   1.393       .  A
C3849      H3855   1.083       .  S
O3850      C3851   1.332       .  A
C3851      C3852   1.396       .  A
C3852      H3856   1.083       .  S
C3857      C3862   1.380       .  A
C3857      C3858   1.405       .  A
C3857      O3863   1.321       .  A
C3858      C3859   1.405       .  A
C3858      H3869   1.082       .  S
C3859      C3868   1.363       .  A
C3859      C3860   1.380       .  A
C3860      C3861   1.404       .  A
C3860      O3866   1.320       .  A
C3861      C3862   1.404       .  A
C3861      H3870   1.082       .  S
C3862      C3865   1.362       .  A
O3863      C3864   1.332       .  A
C3864      C3865   1.393       .  A
C3865      H3871   1.083       .  S
O3866      C3867   1.332       .  A
C3867      C3868   1.394       .  A
C3868      H3872   1.083       .  S
C3873      C3878   1.380       .  A
C3873      C3874   1.401       .  A
C3873      O3879   1.314       .  A
C3874      C3875   1.399       .  A
C3874      H3885   1.082       .  S
C3875      C3884   1.360       .  A
C3875      C3876   1.381       .  A
C3876      C3877   1.403       .  A
C3876      O3882   1.315       .  A
C3877      C3878   1.401       .  A
C3877      H3886   1.082       .  S
C3878      C3881   1.362       .  A
O3879      C3880   1.330       .  A
C3880      C3881   1.391       .  A
C3881      H3887   1.082       .  S
O3882      C3883   1.331       .  A
C3883      C3884   1.390       .  A
C3884      H3888   1.083       .  S
C3889      C3894   1.381       .  A
C3889      C3890   1.403       .  A
C3889      O3895   1.321       .  A
C3890      C3891   1.404       .  A
C3890      H3901   1.082       .  S
C3891      C3900   1.358       .  A
C3891      C3892   1.381       .  A
C3892      C3893   1.400       .  A
C3892      O3898   1.320       .  A
C3893      C3894   1.401       .  A
C3893      H3902   1.082       .  S
C3894      C3897   1.355       .  A
O3895      C3896   1.331       .  A
C3896      C3897   1.391       .  A
C3897      H3903   1.083       .  S
O3898      C3899   1.330       .  A
C3899      C3900   1.393       .  A
C3900      H3904   1.083       .  S
C3905      C3910   1.379       .  A
C3905      C3906   1.407       .  A
C3905      O3911   1.323       .  A
C3906      C3907   1.407       .  A
C3906      H3917   1.082       .  S
C3907      C3916   1.364       .  A
C3907      C3908   1.380       .  A
C3908      C3909   1.406       .  A
C3908      O3914   1.323       .  A
C3909      C3910   1.406       .  A
C3909      H3918   1.082       .  S
C3910      C3913   1.363       .  A
O3911      C3912   1.334       .  A
C3912      C3913   1.394       .  A
C3913      H3919   1.082       .  S
O3914      C3915   1.333       .  A
C3915      C3916   1.395       .  A
C3916      H3920   1.082       .  S
C3921      C3926   1.380       .  A
C3921      C3922   1.398       .  A
C3921      O3927   1.315       .  A
C3922      C3923   1.398       .  A
C3922      H3933   1.083       .  S
C3923      C3932   1.353       .  A
C3923      C3924   1.379       .  A
C3924      C3925   1.410       .  A
C3924      O3930   1.327       .  A
C3925      C3926   1.411       .  A
C3925      H3934   1.082       .  S
C3926      C3929   1.371       .  A
O3927      C3928   1.329       .  A
C3928      C3929   1.396       .  A
C3929      H3935   1.082       .  S
O3930      C3931   1.335       .  A
C3931      C3932   1.391       .  A
C3932      H3936   1.083       .  S
C3937      C3942   1.379       .  A
C3937      C3938   1.407       .  A
C3937      O3943   1.322       .  A
C3938      C3939   1.407       .  A
C3938      H3949   1.082       .  S
C3939      C3948   1.365       .  A
C3939      C3940   1.379       .  A
C3940      C3941   1.406       .  A
C3940      O3946   1.323       .  A
C3941      C3942   1.406       .  A
C3941      H3950   1.082       .  S
C3942      C3945   1.365       .  A
O3943      C3944   1.334       .  A
C3944      C3945   1.393       .  A
C3945      H3951   1.082       .  S
O3946      C3947   1.333       .  A
C3947      C3948   1.396       .  A
C3948      H3952   1.082       .  S
C3953      C3958   1.381       .  A
C3953      C3954   1.401       .  A
C3953      O3959   1.320       .  A
C3954      C3955   1.401       .  A
C3954      H3965   1.082       .  S
C3955      C3964   1.357       .  A
C3955      C3956   1.380       .  A
C3956      C3957   1.403       .  A
C3956      O3962   1.321       .  A
C3957      C3958   1.404       .  A
C3957      H3966   1.082       .  S
C3958      C3961   1.359       .  A
O3959      C3960   1.330       .  A
C3960      C3961   1.394       .  A
C3961      H3967   1.083       .  S
O3962      C3963   1.332       .  A
C3963      C3964   1.391       .  A
C3964      H3968   1.082       .  S
C3969      C3974   1.380       .  A
C3969      C3970   1.404       .  A
C3969      O3975   1.323       .  A
C3970      C3971   1.406       .  A
C3970      H3981   1.082       .  S
C3971      C3980   1.359       .  A
C3971      C3972   1.381       .  A
C3972      C3973   1.400       .  A
C3972      O3978   1.320       .  A
C3973      C3974   1.401       .  A
C3973      H3982   1.082       .  S
C3974      C3977   1.354       .  A
O3975      C3976   1.332       .  A
C3976      C3977   1.392       .  A
C3977      H3983   1.083       .  S
O3978      C3979   1.330       .  A
C3979      C3980   1.394       .  A
C3980      H3984   1.083       .  S
C3985      C3990   1.379       .  A
C3985      C3986   1.411       .  A
C3985      O3991   1.327       .  A
C3986      C3987   1.411       .  A
C3986      H3997   1.082       .  S
C3987      C3996   1.371       .  A
C3987      C3988   1.380       .  A
C3988      C3989   1.400       .  A
C3988      O3994   1.316       .  A
C3989      C3990   1.399       .  A
C3989      H3998   1.082       .  S
C3990      C3993   1.356       .  A
O3991      C3992   1.336       .  A
C3992      C3993   1.391       .  A
C3993      H3999   1.083       .  S
O3994      C3995   1.330       .  A
C3995      C3996   1.395       .  A
C3996      H4000   1.082       .  S
C4001      C4006   1.380   1_545  A
C4001      C4002   1.402       .  A
C4001      O4007   1.318       .  A
C4002      C4003   1.401       .  A
C4002      H4013   1.082       .  S
C4003      C4012   1.359       .  A
C4003      C4004   1.380   1_545  A
C4004      C4005   1.406       .  A
C4004      O4010   1.322       .  A
C4005      C4006   1.406       .  A
C4005      H4014   1.082       .  S
C4006      C4009   1.365       .  A
O4007      C4008   1.330       .  A
C4008      C4009   1.395   1_545  A
C4009      H4015   1.083       .  S
O4010      C4011   1.333       .  A
C4011      C4012   1.392   1_565  A
C4012      H4016   1.083       .  S
C4017      C4022   1.382       .  A
C4017      C4018   1.399       .  A
C4017      O4023   1.317       .  A
C4018      C4019   1.399       .  A
C4018      H4029   1.082       .  S
C4019      C4028   1.356       .  A
C4019      C4020   1.381       .  A
C4020      C4021   1.403       .  A
C4020      O4026   1.320       .  A
C4021      C4022   1.403       .  A
C4021      H4030   1.082       .  S
C4022      C4025   1.360       .  A
O4023      C4024   1.328       .  A
C4024      C4025   1.389       .  A
C4025      H4031   1.082       .  S
O4026      C4027   1.330       .  A
C4027      C4028   1.388       .  A
C4028      H4032   1.083       .  S
C4033      C4038   1.380   1_565  A
C4033      C4034   1.402       .  A
C4033      O4039   1.317       .  A
C4034      C4035   1.401       .  A
C4034      H4045   1.082       .  S
C4035      C4044   1.359       .  A
C4035      C4036   1.380   1_565  A
C4036      C4037   1.406       .  A
C4036      O4042   1.321       .  A
C4037      C4038   1.406       .  A
C4037      H4046   1.082       .  S
C4038      C4041   1.365       .  A
O4039      C4040   1.331       .  A
C4040      C4041   1.394   1_565  A
C4041      H4047   1.083       .  S
O4042      C4043   1.333       .  A
C4043      C4044   1.391   1_545  A
C4044      H4048   1.083       .  S
C4049      C4054   1.380   1_565  A
C4049      C4050   1.404       .  A
C4049      O4055   1.317       .  A
C4050      C4051   1.401       .  A
C4050      H4061   1.082       .  S
C4051      C4060   1.363       .  A
C4051      C4052   1.380   1_565  A
C4052      C4053   1.406       .  A
C4052      O4058   1.319       .  A
C4053      C4054   1.404       .  A
C4053      H4062   1.082       .  S
C4054      C4057   1.367       .  A
O4055      C4056   1.331   1_565  A
C4056      C4057   1.393       .  A
C4057      H4063   1.083       .  S
O4058      C4059   1.332       .  A
C4059      C4060   1.391   1_545  A
C4060      H4064   1.083       .  S
C4065      C4070   1.381   1_545  A
C4065      C4066   1.401       .  A
C4065      O4071   1.320       .  A
C4066      C4067   1.402       .  A
C4066      H4077   1.082       .  S
C4067      C4076   1.356       .  A
C4067      C4068   1.381   1_545  A
C4068      C4069   1.401       .  A
C4068      O4074   1.320       .  A
C4069      C4070   1.402       .  A
C4069      H4078   1.082       .  S
C4070      C4073   1.356       .  A
O4071      C4072   1.330       .  A
C4072      C4073   1.392   1_545  A
C4073      H4079   1.083       .  S
O4074      C4075   1.330   1_565  A
C4075      C4076   1.393       .  A
C4076      H4080   1.083       .  S
C4081      C4086   1.381       .  A
C4081      C4082   1.401       .  A
C4081      O4087   1.314   1_554  A
C4082      C4083   1.399       .  A
C4082      H4093   1.082   1_554  S
C4083      C4092   1.362       .  A
C4083      C4084   1.381       .  A
C4084      C4085   1.403       .  A
C4084      O4090   1.315       .  A
C4085      C4086   1.400       .  A
C4085      H4094   1.082       .  S
C4086      C4089   1.363       .  A
O4087      C4088   1.328   1_556  A
C4088      C4089   1.389       .  A
C4089      H4095   1.083       .  S
O4090      C4091   1.330       .  A
C4091      C4092   1.389       .  A
C4092      H4096   1.083       .  S
C4097      C4102   1.379   1_565  A
C4097      C4098   1.406       .  A
C4097      O4103   1.322       .  A
C4098      C4099   1.406       .  A
C4098      H4109   1.082       .  S
C4099      C4108   1.365       .  A
C4099      C4100   1.379   1_565  A
C4100      C4101   1.407       .  A
C4100      O4106   1.323       .  A
C4101      C4102   1.407       .  A
C4101      H4110   1.082       .  S
C4102      C4105   1.366       .  A
O4103      C4104   1.333   1_565  A
C4104      C4105   1.395       .  A
C4105      H4111   1.082       .  S
O4106      C4107   1.334   1_545  A
C4107      C4108   1.395       .  A
C4108      H4112   1.082       .  S
C4113      C4118   1.381       .  A
C4113      C4114   1.403       .  A
C4113      O4119   1.316       .  A
C4114      C4115   1.401       .  A
C4114      H4125   1.082       .  S
C4115      C4124   1.364       .  A
C4115      C4116   1.381       .  A
C4116      C4117   1.403       .  A
C4116      O4122   1.316   1_554  A
C4117      C4118   1.400       .  A
C4117      H4126   1.082   1_554  S
C4118      C4121   1.363       .  A
O4119      C4120   1.330       .  A
C4120      C4121   1.389       .  A
C4121      H4127   1.082       .  S
O4122      C4123   1.330   1_556  A
C4123      C4124   1.390       .  A
C4124      H4128   1.083       .  S
C4129      C4134   1.380   1_565  A
C4129      C4130   1.399       .  A
C4129      O4135   1.316       .  A
C4130      C4131   1.399       .  A
C4130      H4141   1.082       .  S
C4131      C4140   1.356       .  A
C4131      C4132   1.379   1_565  A
C4132      C4133   1.410       .  A
C4132      O4138   1.326       .  A
C4133      C4134   1.410       .  A
C4133      H4142   1.082       .  S
C4134      C4137   1.369       .  A
O4135      C4136   1.329       .  A
C4136      C4137   1.395   1_565  A
C4137      H4143   1.082       .  S
O4138      C4139   1.335   1_545  A
C4139      C4140   1.390       .  A
C4140      H4144   1.083       .  S
C4145      C4150   1.379   1_545  A
C4145      C4146   1.405       .  A
C4145      O4151   1.322       .  A
C4146      C4147   1.405       .  A
C4146      H4157   1.082       .  S
C4147      C4156   1.361       .  A
C4147      C4148   1.379   1_545  A
C4148      C4149   1.408       .  A
C4148      O4154   1.325       .  A
C4149      C4150   1.408       .  A
C4149      H4158   1.082       .  S
C4150      C4153   1.367       .  A
O4151      C4152   1.333   1_545  A
C4152      C4153   1.396       .  A
C4153      H4159   1.082       .  S
O4154      C4155   1.334   1_565  A
C4155      C4156   1.394       .  A
C4156      H4160   1.083       .  S
C4161      C4166   1.380   1_545  A
C4161      C4162   1.405       .  A
C4161      O4167   1.317       .  A
C4162      C4163   1.403       .  A
C4162      H4173   1.082       .  S
C4163      C4172   1.365       .  A
C4163      C4164   1.380   1_545  A
C4164      C4165   1.403       .  A
C4164      O4170   1.316       .  A
C4165      C4166   1.401       .  A
C4165      H4174   1.082       .  S
C4166      C4169   1.363       .  A
O4167      C4168   1.332       .  A
C4168      C4169   1.391   1_545  A
C4169      H4175   1.083       .  S
O4170      C4171   1.331   1_565  A
C4171      C4172   1.393       .  A
C4172      H4176   1.083       .  S
C4177      C4182   1.381   1_545  A
C4177      C4178   1.401       .  A
C4177      O4183   1.322       .  A
C4178      C4179   1.403       .  A
C4178      H4189   1.082       .  S
C4179      C4188   1.355       .  A
C4179      C4180   1.381       .  A
C4180      C4181   1.399   1_545  A
C4180      O4186   1.320   1_545  A
C4181      C4182   1.401       .  A
C4181      H4190   1.082       .  S
C4182      C4185   1.352       .  A
O4183      C4184   1.330       .  A
C4184      C4185   1.391   1_545  A
C4185      H4191   1.083       .  S
O4186      C4187   1.329   1_565  A
C4187      C4188   1.392       .  A
C4188      H4192   1.083       .  S
C4193      C4198   1.381       .  A
C4193      C4194   1.402       .  A
C4193      O4199   1.317       .  A
C4194      C4195   1.401       .  A
C4194      H4205   1.082       .  S
C4195      C4204   1.360       .  A
C4195      C4196   1.381       .  A
C4196      C4197   1.402       .  A
C4196      O4202   1.318       .  A
C4197      C4198   1.401       .  A
C4197      H4206   1.082       .  S
C4198      C4201   1.361       .  A
O4199      C4200   1.329       .  A
C4200      C4201   1.389       .  A
C4201      H4207   1.082       .  S
O4202      C4203   1.329       .  A
C4203      C4204   1.389       .  A
C4204      H4208   1.083       .  S
C4209      C4214   1.379   1_545  A
C4209      C4210   1.412       .  A
C4209      O4215   1.327       .  A
C4210      C4211   1.412       .  A
C4210      H4221   1.082       .  S
C4211      C4220   1.372       .  A
C4211      C4212   1.380   1_545  A
C4212      C4213   1.396       .  A
C4212      O4218   1.313       .  A
C4213      C4214   1.396       .  A
C4213      H4222   1.082       .  S
C4214      C4217   1.353       .  A
O4215      C4216   1.336   1_545  A
C4216      C4217   1.388       .  A
C4217      H4223   1.083       .  S
O4218      C4219   1.328   1_565  A
C4219      C4220   1.396       .  A
C4220      H4224   1.082       .  S
C4225      C4230   1.380       .  A
C4225      C4226   1.404       .  A
C4225      O4231   1.321       .  A
C4226      C4227   1.404       .  A
C4226      H4237   1.082       .  S
C4227      C4236   1.361       .  A
C4227      C4228   1.380       .  A
C4228      C4229   1.407       .  A
C4228      O4234   1.323       .  A
C4229      C4230   1.407       .  A
C4229      H4238   1.082       .  S
C4230      C4233   1.364       .  A
O4231      C4232   1.332       .  A
C4232      C4233   1.395       .  A
C4233      H4239   1.082       .  S
O4234      C4235   1.333       .  A
C4235      C4236   1.394       .  A
C4236      H4240   1.083       .  S
C4241      C4246   1.381       .  A
C4241      C4242   1.403       .  A
C4241      O4247   1.314       .  A
C4242      C4243   1.400       .  A
C4242      H4253   1.082       .  S
C4243      C4252   1.363       .  A
C4243      C4244   1.380       .  A
C4244      C4245   1.403       .  A
C4244      O4250   1.314       .  A
C4245      C4246   1.400       .  A
C4245      H4254   1.082       .  S
C4246      C4249   1.365       .  A
O4247      C4248   1.330       .  A
C4248      C4249   1.389       .  A
C4249      H4255   1.082       .  S
O4250      C4251   1.330       .  A
C4251      C4252   1.389       .  A
C4252      H4256   1.083       .  S
C4257      C4262   1.380       .  A
C4257      C4258   1.406       .  A
C4257      O4263   1.321       .  A
C4258      C4259   1.405       .  A
C4258      H4269   1.082       .  S
C4259      C4268   1.365       .  A
C4259      C4260   1.379       .  A
C4260      C4261   1.408       .  A
C4260      O4266   1.322       .  A
C4261      C4262   1.407       .  A
C4261      H4270   1.082       .  S
C4262      C4265   1.367       .  A
O4263      C4264   1.332       .  A
C4264      C4265   1.396       .  A
C4265      H4271   1.083       .  S
O4266      C4267   1.334       .  A
C4267      C4268   1.393       .  A
C4268      H4272   1.082       .  S
C4273      C4278   1.380       .  A
C4273      C4274   1.405       .  A
C4273      O4279   1.316       .  A
C4274      C4275   1.402       .  A
C4274      H4285   1.082       .  S
C4275      C4284   1.368       .  A
C4275      C4276   1.380       .  A
C4276      C4277   1.406       .  A
C4276      O4282   1.316       .  A
C4277      C4278   1.403       .  A
C4277      H4286   1.082       .  S
C4278      C4281   1.368       .  A
O4279      C4280   1.331       .  A
C4280      C4281   1.392       .  A
C4281      H4287   1.082       .  S
O4282      C4283   1.331       .  A
C4283      C4284   1.390       .  A
C4284      H4288   1.082       .  S
C4289      C4294   1.380       .  A
C4289      C4290   1.404       .  A
C4289      O4295   1.314       .  A
C4290      C4291   1.401   1_556  A
C4290      H4301   1.082       .  S
C4291      C4300   1.365       .  A
C4291      C4292   1.380       .  A
C4292      C4293   1.402   1_554  A
C4292      O4298   1.313       .  A
C4293      C4294   1.399       .  A
C4293      H4302   1.082       .  S
C4294      C4297   1.363       .  A
O4295      C4296   1.331       .  A
C4296      C4297   1.389       .  A
C4297      H4303   1.082       .  S
O4298      C4299   1.329       .  A
C4299      C4300   1.391       .  A
C4300      H4304   1.083       .  S
C4305      C4310   1.380       .  A
C4305      C4306   1.403       .  A
C4305      O4311   1.315       .  A
C4306      C4307   1.400       .  A
C4306      H4317   1.082       .  S
C4307      C4316   1.364       .  A
C4307      C4308   1.380       .  A
C4308      C4309   1.405       .  A
C4308      O4314   1.316       .  A
C4309      C4310   1.403       .  A
C4309      H4318   1.082       .  S
C4310      C4313   1.367       .  A
O4311      C4312   1.331       .  A
C4312      C4313   1.392       .  A
C4313      H4319   1.082       .  S
O4314      C4315   1.332       .  A
C4315      C4316   1.391       .  A
C4316      H4320   1.083       .  S
C4321      C4326   1.379       .  A
C4321      C4322   1.406       .  A
C4321      O4327   1.321       .  A
C4322      C4323   1.405   1_556  A
C4322      H4333   1.082   1_556  S
C4323      C4332   1.365       .  A
C4323      C4324   1.379       .  A
C4324      C4325   1.406   1_554  A
C4324      O4330   1.321       .  A
C4325      C4326   1.405       .  A
C4325      H4334   1.082       .  S
C4326      C4329   1.365       .  A
O4327      C4328   1.333       .  A
C4328      C4329   1.394       .  A
C4329      H4335   1.082       .  S
O4330      C4331   1.333       .  A
C4331      C4332   1.394       .  A
C4332      H4336   1.083       .  S
C4337      C4342   1.380       .  A
C4337      C4338   1.407       .  A
C4337      O4343   1.317       .  A
C4338      C4339   1.404       .  A
C4338      H4349   1.082       .  S
C4339      C4348   1.370       .  A
C4339      C4340   1.380       .  A
C4340      C4341   1.403       .  A
C4340      O4346   1.314       .  A
C4341      C4342   1.399       .  A
C4341      H4350   1.082       .  S
C4342      C4345   1.365       .  A
O4343      C4344   1.333       .  A
C4344      C4345   1.389       .  A
C4345      H4351   1.082       .  S
O4346      C4347   1.330       .  A
C4347      C4348   1.392       .  A
C4348      H4352   1.082       .  S
C4353      C4358   1.379       .  A
C4353      C4354   1.404       .  A
C4353      O4359   1.317       .  A
C4354      C4355   1.402       .  A
C4354      H4365   1.082       .  S
C4355      C4364   1.364       .  A
C4355      C4356   1.379       .  A
C4356      C4357   1.412       .  A
C4356      O4362   1.324       .  A
C4357      C4358   1.410       .  A
C4357      H4366   1.082       .  S
C4358      C4361   1.375       .  A
O4359      C4360   1.332       .  A
C4360      C4361   1.397       .  A
C4361      H4367   1.082       .  S
O4362      C4363   1.335       .  A
C4363      C4364   1.392       .  A
C4364      H4368   1.083       .  S
C4369      C4374   1.380       .  A
C4369      C4370   1.403       .  A
C4369      O4375   1.320       .  A
C4370      C4371   1.403       .  A
C4370      H4381   1.082       .  S
C4371      C4380   1.360       .  A
C4371      C4372   1.379       .  A
C4372      C4373   1.409       .  A
C4372      O4378   1.325       .  A
C4373      C4374   1.409       .  A
C4373      H4382   1.082       .  S
C4374      C4377   1.367       .  A
O4375      C4376   1.331       .  A
C4376      C4377   1.396       .  A
C4377      H4383   1.082       .  S
O4378      C4379   1.335       .  A
C4379      C4380   1.393       .  A
C4380      H4384   1.083       .  S
C4385      C4390   1.380       .  A
C4385      C4386   1.403       .  A
C4385      O4391   1.314       .  A
C4386      C4387   1.400       .  A
C4386      H4397   1.082       .  S
C4387      C4396   1.364       .  A
C4387      C4388   1.380       .  A
C4388      C4389   1.405       .  A
C4388      O4394   1.315       .  A
C4389      C4390   1.401       .  A
C4389      H4398   1.082       .  S
C4390      C4393   1.367       .  A
O4391      C4392   1.330       .  A
C4392      C4393   1.391       .  A
C4393      H4399   1.082       .  S
O4394      C4395   1.330       .  A
C4395      C4396   1.389       .  A
C4396      H4400   1.083       .  S
C4401      C4406   1.381       .  A
C4401      C4402   1.399       .  A
C4401      O4407   1.318       .  A
C4402      C4403   1.399       .  A
C4402      H4413   1.082       .  S
C4403      C4412   1.354       .  A
C4403      C4404   1.380       .  A
C4404      C4405   1.403       .  A
C4404      O4410   1.321       .  A
C4405      C4406   1.404       .  A
C4405      H4414   1.082       .  S
C4406      C4409   1.359       .  A
O4407      C4408   1.328       .  A
C4408      C4409   1.394       .  A
C4409      H4415   1.083       .  S
O4410      C4411   1.332       .  A
C4411      C4412   1.390       .  A
C4412      H4416   1.083       .  S
C4417      C4422   1.380       .  A
C4417      C4418   1.403       .  A
C4417      O4423   1.315       .  A
C4418      C4419   1.400       .  A
C4418      H4429   1.082       .  S
C4419      C4428   1.363       .  A
C4419      C4420   1.380       .  A
C4420      C4421   1.405       .  A
C4420      O4426   1.316       .  A
C4421      C4422   1.402       .  A
C4421      H4430   1.082       .  S
C4422      C4425   1.366       .  A
O4423      C4424   1.331       .  A
C4424      C4425   1.391       .  A
C4425      H4431   1.082       .  S
O4426      C4427   1.332       .  A
C4427      C4428   1.390       .  A
C4428      H4432   1.082       .  S
C4433      C4438   1.379       .  A
C4433      C4434   1.412       .  A
C4433      O4439   1.324       .  A
C4434      C4435   1.410       .  A
C4434      H4445   1.082       .  S
C4435      C4444   1.373       .  A
C4435      C4436   1.380       .  A
C4436      C4437   1.401       .  A
C4436      O4442   1.315       .  A
C4437      C4438   1.399       .  A
C4437      H4446   1.082       .  S
C4438      C4441   1.360       .  A
O4439      C4440   1.336       .  A
C4440      C4441   1.390       .  A
C4441      H4447   1.083       .  S
O4442      C4443   1.330       .  A
C4443      C4444   1.397       .  A
C4444      H4448   1.082       .  S
C4449      C4454   1.380       .  A
C4449      C4450   1.406   1_556  A
C4449      O4455   1.320       .  A
C4450      C4451   1.404       .  A
C4450      H4461   1.082       .  S
C4451      C4460   1.365       .  A
C4451      C4452   1.380       .  A
C4452      C4453   1.401       .  A
C4452      O4458   1.315       .  A
C4453      C4454   1.400   1_554  A
C4453      H4462   1.082   1_554  S
C4454      C4457   1.359       .  A
O4455      C4456   1.332       .  A
C4456      C4457   1.391       .  A
C4457      H4463   1.083       .  S
O4458      C4459   1.330       .  A
C4459      C4460   1.394       .  A
C4460      H4464   1.083       .  S
C4465      C4470   1.382       .  A
C4465      C4466   1.400       .  A
C4465      O4471   1.312       .  A
C4466      C4467   1.397       .  A
C4466      H4477   1.082       .  S
C4467      C4476   1.361       .  A
C4467      C4468   1.381       .  A
C4468      C4469   1.401       .  A
C4468      O4474   1.312       .  A
C4469      C4470   1.398       .  A
C4469      H4478   1.082   1_556  S
C4470      C4473   1.362       .  A
O4471      C4472   1.327       .  A
C4472      C4473   1.387       .  A
C4473      H4479   1.083       .  S
O4474      C4475   1.329       .  A
C4475      C4476   1.387       .  A
C4476      H4480   1.082       .  S
C4481      C4486   1.381       .  A
C4481      C4482   1.401       .  A
C4481      O4487   1.314       .  A
C4482      C4483   1.398       .  A
C4482      H4493   1.082       .  S
C4483      C4492   1.360       .  A
C4483      C4484   1.381       .  A
C4484      C4485   1.405       .  A
C4484      O4490   1.317       .  A
C4485      C4486   1.403       .  A
C4485      H4494   1.082       .  S
C4486      C4489   1.365       .  A
O4487      C4488   1.328       .  A
C4488      C4489   1.391       .  A
C4489      H4495   1.083       .  S
O4490      C4491   1.331       .  A
C4491      C4492   1.388       .  A
C4492      H4496   1.083       .  S
C4497      C4502   1.379       .  A
C4497      C4498   1.406       .  A
C4497      O4503   1.323       .  A
C4498      C4499   1.406       .  A
C4498      H4509   1.082       .  S
C4499      C4508   1.364       .  A
C4499      C4500   1.380       .  A
C4500      C4501   1.406       .  A
C4500      O4506   1.322       .  A
C4501      C4502   1.405       .  A
C4501      H4510   1.082       .  S
C4502      C4505   1.363       .  A
O4503      C4504   1.333       .  A
C4504      C4505   1.394       .  A
C4505      H4511   1.083       .  S
O4506      C4507   1.333       .  A
C4507      C4508   1.394       .  A
C4508      H4512   1.082       .  S
C4513      C4518   1.381       .  A
C4513      C4514   1.395       .  A
C4513      O4519   1.310       .  A
C4514      C4515   1.394       .  A
C4514      H4525   1.083       .  S
C4515      C4524   1.353       .  A
C4515      C4516   1.381       .  A
C4516      C4517   1.406       .  A
C4516      O4522   1.319       .  A
C4517      C4518   1.404       .  A
C4517      H4526   1.082       .  S
C4518      C4521   1.366       .  A
O4519      C4520   1.326       .  A
C4520      C4521   1.391       .  A
C4521      H4527   1.082       .  S
O4522      C4523   1.331       .  A
C4523      C4524   1.386       .  A
C4524      H4528   1.083       .  S
C4529      C4534   1.380       .  A
C4529      C4530   1.405       .  A
C4529      O4535   1.316       .  A
C4530      C4531   1.402       .  A
C4530      H4541   1.082       .  S
C4531      C4540   1.366       .  A
C4531      C4532   1.380       .  A
C4532      C4533   1.401       .  A
C4532      O4538   1.313       .  A
C4533      C4534   1.398       .  A
C4533      H4542   1.082       .  S
C4534      C4537   1.361       .  A
O4535      C4536   1.331       .  A
C4536      C4537   1.390       .  A
C4537      H4543   1.083       .  S
O4538      C4539   1.330       .  A
C4539      C4540   1.392       .  A
C4540      H4544   1.083       .  S
C4545      C4550   1.380       .  A
C4545      C4546   1.404       .  A
C4545      O4551   1.316       .  A
C4546      C4547   1.402       .  A
C4546      H4557   1.082       .  S
C4547      C4556   1.365       .  A
C4547      C4548   1.380       .  A
C4548      C4549   1.401       .  A
C4548      O4554   1.313       .  A
C4549      C4550   1.399       .  A
C4549      H4558   1.082       .  S
C4550      C4553   1.361       .  A
O4551      C4552   1.331       .  A
C4552      C4553   1.390       .  A
C4553      H4559   1.083       .  S
O4554      C4555   1.330       .  A
C4555      C4556   1.392       .  A
C4556      H4560   1.083       .  S
C4561      C4566   1.381       .  A
C4561      C4562   1.406       .  A
C4561      O4567   1.320       .  A
C4562      C4563   1.406       .  A
C4562      H4573   1.082       .  S
C4563      C4572   1.366       .  A
C4563      C4564   1.381       .  A
C4564      C4565   1.401       .  A
C4564      O4570   1.317       .  A
C4565      C4566   1.399       .  A
C4565      H4574   1.082       .  S
C4566      C4569   1.359       .  A
O4567      C4568   1.332       .  A
C4568      C4569   1.387       .  A
C4569      H4575   1.082       .  S
O4570      C4571   1.329       .  A
C4571      C4572   1.392       .  A
C4572      H4576   1.082       .  S
C4577      C4582   1.379       .  A
C4577      C4578   1.408       .  A
C4577      O4583   1.322       .  A
C4578      C4579   1.406       .  A
C4578      H4589   1.082       .  S
C4579      C4588   1.366       .  A
C4579      C4580   1.380       .  A
C4580      C4581   1.401       .  A
C4580      O4586   1.316       .  A
C4581      C4582   1.400       .  A
C4581      H4590   1.082       .  S
C4582      C4585   1.360       .  A
O4583      C4584   1.334       .  A
C4584      C4585   1.391       .  A
C4585      H4591   1.083       .  S
O4586      C4587   1.330       .  A
C4587      C4588   1.395       .  A
C4588      H4592   1.083       .  S
C4593      C4598   1.381       .  A
C4593      C4594   1.395       .  A
C4593      O4599   1.310       .  A
C4594      C4595   1.393       .  A
C4594      H4605   1.082       .  S
C4595      C4604   1.353       .  A
C4595      C4596   1.381       .  A
C4596      C4597   1.406       .  A
C4596      O4602   1.319       .  A
C4597      C4598   1.405       .  A
C4597      H4606   1.082       .  S
C4598      C4601   1.367       .  A
O4599      C4600   1.326       .  A
C4600      C4601   1.393       .  A
C4601      H4607   1.082       .  S
O4602      C4603   1.331       .  A
C4603      C4604   1.384       .  A
C4604      H4608   1.083       .  S
C4609      C4614   1.381       .  A
C4609      C4610   1.402       .  A
C4609      O4615   1.320       .  A
C4610      C4611   1.402       .  A
C4610      H4621   1.082       .  S
C4611      C4620   1.358       .  A
C4611      C4612   1.382       .  A
C4612      C4613   1.401       .  A
C4612      O4618   1.319       .  A
C4613      C4614   1.402       .  A
C4613      H4622   1.082       .  S
C4614      C4617   1.358       .  A
O4615      C4616   1.330       .  A
C4616      C4617   1.390       .  A
C4617      H4623   1.083       .  S
O4618      C4619   1.328       .  A
C4619      C4620   1.390       .  A
C4620      H4624   1.083       .  S
C4625      C4630   1.380       .  A
C4625      C4626   1.399       .  A
C4625      O4631   1.314       .  A
C4626      C4627   1.398       .  A
C4626      H4637   1.082       .  S
C4627      C4636   1.357       .  A
C4627      C4628   1.379       .  A
C4628      C4629   1.412       .  A
C4628      O4634   1.326       .  A
C4629      C4630   1.411       .  A
C4629      H4638   1.082       .  S
C4630      C4633   1.373       .  A
O4631      C4632   1.329       .  A
C4632      C4633   1.397       .  A
C4633      H4639   1.082       .  S
O4634      C4635   1.335       .  A
C4635      C4636   1.390       .  A
C4636      H4640   1.083       .  S
C4641      C4646   1.380       .  A
C4641      C4642   1.403       .  A
C4641      O4647   1.320       .  A
C4642      C4643   1.403       .  A
C4642      H4653   1.082       .  S
C4643      C4652   1.361       .  A
C4643      C4644   1.379       .  A
C4644      C4645   1.408       .  A
C4644      O4650   1.323       .  A
C4645      C4646   1.407       .  A
C4645      H4654   1.082       .  S
C4646      C4649   1.366       .  A
O4647      C4648   1.331       .  A
C4648      C4649   1.395       .  A
C4649      H4655   1.083       .  S
O4650      C4651   1.335       .  A
C4651      C4652   1.392       .  A
C4652      H4656   1.082       .  S
C4657      C4662   1.381       .  A
C4657      C4658   1.402       .  A
C4657      O4663   1.314       .  A
C4658      C4659   1.399       .  A
C4658      H4669   1.082       .  S
C4659      C4668   1.364       .  A
C4659      C4660   1.381       .  A
C4660      C4661   1.401       .  A
C4660      O4666   1.313       .  A
C4661      C4662   1.398       .  A
C4661      H4670   1.082       .  S
C4662      C4665   1.362       .  A
O4663      C4664   1.328       .  A
C4664      C4665   1.387       .  A
C4665      H4671   1.083       .  S
O4666      C4667   1.330       .  A
C4667      C4668   1.389       .  A
C4668      H4672   1.082       .  S
C4673      C4678   1.381       .  A
C4673      C4674   1.402   1_554  A
C4673      O4679   1.320       .  A
C4674      C4675   1.402       .  A
C4674      H4685   1.082       .  S
C4675      C4684   1.358       .  A
C4675      C4676   1.380       .  A
C4676      C4677   1.403       .  A
C4676      O4682   1.321       .  A
C4677      C4678   1.404   1_556  A
C4677      H4686   1.082       .  S
C4678      C4681   1.359       .  A
O4679      C4680   1.330       .  A
C4680      C4681   1.394       .  A
C4681      H4687   1.083       .  S
O4682      C4683   1.331       .  A
C4683      C4684   1.392       .  A
C4684      H4688   1.083       .  S
C4689      C4694   1.381       .  A
C4689      C4690   1.400       .  A
C4689      O4695   1.319       .  A
C4690      C4691   1.401       .  A
C4690      H4701   1.082       .  S
C4691      C4700   1.355       .  A
C4691      C4692   1.381       .  A
C4692      C4693   1.400       .  A
C4692      O4698   1.319       .  A
C4693      C4694   1.401       .  A
C4693      H4702   1.082       .  S
C4694      C4697   1.355       .  A
O4695      C4696   1.329       .  A
C4696      C4697   1.392       .  A
C4697      H4703   1.083       .  S
O4698      C4699   1.329       .  A
C4699      C4700   1.392       .  A
C4700      H4704   1.083       .  S
C4705      C4710   1.380       .  A
C4705      C4706   1.405       .  A
C4705      O4711   1.318       .  A
C4706      C4707   1.403       .  A
C4706      H4717   1.082       .  S
C4707      C4716   1.365       .  A
C4707      C4708   1.380       .  A
C4708      C4709   1.405       .  A
C4708      O4714   1.319       .  A
C4709      C4710   1.404       .  A
C4709      H4718   1.082       .  S
C4710      C4713   1.366       .  A
O4711      C4712   1.331       .  A
C4712      C4713   1.391       .  A
C4713      H4719   1.082       .  S
O4714      C4715   1.331       .  A
C4715      C4716   1.391       .  A
C4716      H4720   1.083       .  S
C4721      C4726   1.381       .  A
C4721      C4722   1.394       .  A
C4721      O4727   1.311       .  A
C4722      C4723   1.393       .  A
C4722      H4733   1.083       .  S
C4723      C4732   1.349       .  A
C4723      C4724   1.380       .  A
C4724      C4725   1.409       .  A
C4724      O4730   1.324       .  A
C4725      C4726   1.409       .  A
C4725      H4734   1.082       .  S
C4726      C4729   1.369       .  A
O4727      C4728   1.326       .  A
C4728      C4729   1.395       .  A
C4729      H4735   1.082       .  S
O4730      C4731   1.335       .  A
C4731      C4732   1.387       .  A
C4732      H4736   1.083       .  S
