geometry optimzed in LAMMPS
_audit_creation_date              2020-12-01 
_audit_creation_method            'lammps2cif' 
_symmetry_space_group_name_H-M    'P1' 
_symmetry_Int_Tables_number       1 
_symmetry_cell_setting            triclinic 
loop_ 
_symmetry_equiv_pos_as_xyz 
  x,y,z 
_cell_length_a                    20.18211421 
_cell_length_b                    20.138912771819914 
_cell_length_c                    20.096130930310416 
_cell_angle_alpha                 89.666221756953 
_cell_angle_beta                  89.75151187253321 
_cell_angle_gamma                 91.59080652003905 
loop_ 
_atom_site_label 
_atom_site_type_symbol 
_atom_site_fract_x 
_atom_site_fract_y 
_atom_site_fract_z 
_atom_site_charge 
Zn1        Zn  0.81244228  0.80538519  0.80639611     1.49700
Zn2        Zn  0.72150059  0.80635178  0.67774981     1.49400
Zn3        Zn  0.80005014  0.67409737  0.70940365     1.49100
Zn4        Zn  0.67531434  0.71188177  0.79472198     1.49500
O5          O  0.75319638  0.74950472  0.74790070    -1.83900
O6          O  0.81288581  0.90668200  0.78514242    -0.74500
O7          O  0.75222587  0.78000307  0.58218452    -0.74300
O8          O  0.90075174  0.68815986  0.72700720    -0.73800
O9          O  0.75229696  0.90047246  0.69451308    -0.74500
O10         O  0.90983330  0.78204439  0.78406133    -0.74100
O11         O  0.78476898  0.67961579  0.61098927    -0.74700
O12         O  0.68012543  0.61305919  0.79478509    -0.74100
O13         O  0.62405057  0.80440630  0.68337803    -0.74900
O14         O  0.77036503  0.57781089  0.74596511    -0.74200
O15         O  0.58182687  0.73581694  0.75936500    -0.74700
O16         O  0.68392018  0.74452501  0.88974529    -0.74600
O17         O  0.78257064  0.79099574  0.90769047    -0.74400
C18         C  0.78990636  0.93447678  0.73342883     0.77400
C19         C  0.77435529  0.72352546  0.56604248     0.77900
C20         C  0.93668219  0.73083154  0.75894756     0.76800
C21         C  0.71761921  0.56546758  0.77988423     0.77200
C22         C  0.57381637  0.77781598  0.71280065     0.78300
C23         C  0.72506770  0.77170425  0.92981234     0.77400
C24         C  0.79618209  0.30662155  0.50793289    -0.02200
C25         C  0.19333354  0.29174989  0.49658663    -0.02200
C26         C  0.80703457  0.70990348  0.49782839    -0.02200
C27         C  0.18690977  0.69494203  0.49516762    -0.02200
C28         C  0.30580204  0.49157494  0.78996512    -0.02200
C29         C  0.30151781  0.49740178  0.19063945    -0.02200
C30         C  0.70076935  0.49845681  0.81597655    -0.02200
C31         C  0.69823155  0.49331926  0.21547399    -0.02200
C32         C  0.49509522  0.79663439  0.28955437    -0.02200
C33         C  0.49041602  0.20004430  0.30114726    -0.02200
C34         C  0.50685691  0.80499030  0.69177692    -0.02200
C35         C  0.50736538  0.20111904  0.69673677    -0.02200
Zn36       Zn  0.31598505  0.17487513  0.78828552     1.49700
Zn37       Zn  0.22202656  0.29012803  0.81806389     1.49400
Zn38       Zn  0.30981776  0.29938164  0.68335843     1.49100
Zn39       Zn  0.18158537  0.20123010  0.69661693     1.49500
O40         O  0.25777770  0.24123431  0.74545515    -1.83900
O41         O  0.30682835  0.17908607  0.88519043    -0.74500
O42         O  0.25491266  0.38264051  0.80702834    -0.74300
O43         O  0.40709179  0.26845543  0.68492936    -0.73800
O44         O  0.23889250  0.25647475  0.91731683    -0.74500
O45         O  0.41322952  0.19968469  0.77077939    -0.74100
O46         O  0.30230197  0.39952107  0.70914639    -0.74700
O47         O  0.18774823  0.22179904  0.59658034    -0.74100
O48         O  0.12750800  0.29106199  0.79809908    -0.74900
O49         O  0.27411954  0.29112044  0.58781318    -0.74200
O50         O  0.08163856  0.22498919  0.72525310    -0.74700
O51         O  0.20355670  0.10821386  0.71156624    -0.74600
O52         O  0.29187294  0.07490605  0.76551337    -0.74400
C53         C  0.27785666  0.20958132  0.93161625     0.77400
C54         C  0.28206760  0.42229261  0.76482717     0.77900
C55         C  0.44106126  0.22993487  0.72151766     0.76800
C56         C  0.22340637  0.26242818  0.56158102     0.77200
C57         C  0.07550061  0.27007120  0.76885603     0.78300
C58         C  0.23897054  0.06132792  0.73333537     0.77400
Zn59       Zn  0.27888527  0.79438902  0.31427269     1.49700
Zn60       Zn  0.31556672  0.70643329  0.19283758     1.49400
Zn61       Zn  0.18610912  0.66769563  0.27531034     1.49100
Zn62       Zn  0.18608114  0.80507939  0.18496213     1.49500
O63         O  0.24013127  0.74428406  0.24178568    -1.83900
O64         O  0.37752450  0.79127182  0.30350966    -0.74500
O65         O  0.32163393  0.61076069  0.21529114    -0.74300
O66         O  0.18301480  0.67745640  0.37640683    -0.73800
O67         O  0.41255200  0.74108164  0.21352375    -0.74500
O68         O  0.25077275  0.75962322  0.40928607    -0.74100
O69         O  0.22236612  0.57343792  0.24590282    -0.74700
O70         O  0.08640365  0.77532353  0.19160931    -0.74100
O71         O  0.29713019  0.71625292  0.09334402    -0.74900
O72         O  0.09192864  0.67563884  0.23816745    -0.74200
O73         O  0.22462777  0.79720352  0.08698937    -0.74700
O74         O  0.18706788  0.90503913  0.21774941    -0.74600
O75         O  0.25005342  0.89019438  0.30570529    -0.74400
C76         C  0.42533006  0.77314107  0.26644369     0.77400
C77         C  0.28100415  0.56236902  0.22472248     0.77900
C78         C  0.20936603  0.71232677  0.42320781     0.76800
C79         C  0.05861763  0.71953371  0.20749395     0.77200
C80         C  0.26802694  0.76058024  0.05896719     0.78300
C81         C  0.21274213  0.92785771  0.27131835     0.77400
Zn82       Zn  0.79974036  0.31827671  0.29326170     1.49700
Zn83       Zn  0.70688578  0.19646468  0.32968541     1.49400
Zn84       Zn  0.67515294  0.28219771  0.20187668     1.49100
Zn85       Zn  0.79976918  0.18442359  0.19801722     1.49500
O86         O  0.74548428  0.24455875  0.25542485    -1.83900
O87         O  0.80354422  0.31102247  0.39052893    -0.74500
O88         O  0.60866829  0.19683411  0.31128318    -0.74300
O89         O  0.68899556  0.37724408  0.21355022    -0.73800
O90         O  0.73121213  0.23469242  0.42699204    -0.74500
O91         O  0.77036952  0.41530442  0.27635494    -0.74100
O92         O  0.57543571  0.25787986  0.22720266    -0.74700
O93         O  0.76955465  0.18981994  0.09730493    -0.74100
O94         O  0.73960318  0.10297548  0.32111001    -0.74900
O95         O  0.68910315  0.26178600  0.10479276    -0.74200
O96         O  0.78339348  0.08577105  0.22230045    -0.74700
O97         O  0.90182935  0.20745302  0.21492675    -0.74600
O98         O  0.88961212  0.30860853  0.25534575    -0.74400
C99         C  0.77465093  0.28085087  0.43872218     0.77400
C100        C  0.56142451  0.21970061  0.27625088     0.77900
C101        C  0.72094210  0.42580714  0.23942609     0.76800
C102        C  0.72181626  0.22076041  0.07024193     0.77200
C103        C  0.76563181  0.06356921  0.27936373     0.78300
C104        C  0.92564552  0.26588440  0.22710572     0.77400
Zn105      Zn  0.70348131  0.17102956  0.78871349     1.49700
Zn106      Zn  0.82177860  0.21576578  0.69682666     1.49400
Zn107      Zn  0.69744010  0.31159023  0.70591425     1.49100
Zn108      Zn  0.79467315  0.29989931  0.83151732     1.49500
O109        O  0.75437603  0.25020360  0.75647242    -1.83900
O110        O  0.73701090  0.07340837  0.76532695    -0.74500
O111        O  0.79537466  0.23011498  0.60029747    -0.74300
O112        O  0.59727838  0.28252580  0.71587049    -0.73800
O113        O  0.81332117  0.11967994  0.70233422    -0.74500
O114        O  0.61048272  0.18070185  0.75458900    -0.74100
O115        O  0.72487156  0.31191975  0.60694561    -0.74700
O116        O  0.76496962  0.39721418  0.83196191    -0.74100
O117        O  0.92264101  0.24458021  0.72256924    -0.74900
O118        O  0.71150917  0.40877450  0.73706906    -0.74200
O119        O  0.89291889  0.29852694  0.81311621    -0.74700
O120        O  0.76788267  0.26146905  0.92644616    -0.74600
O121        O  0.70078588  0.18256731  0.88624349    -0.74400
C122        C  0.78560659  0.06731639  0.72528192     0.77400
C123        C  0.76455673  0.27729918  0.57250102     0.77900
C124        C  0.57322083  0.22434957  0.72961020     0.76800
C125        C  0.73278514  0.43349511  0.79185619     0.77200
C126        C  0.93871081  0.27836616  0.77437562     0.78300
C127        C  0.72447439  0.21484364  0.93570041     0.77400
C128        C  0.69918222  0.79614846  0.99889063    -0.02200
C129        C  0.69026328  0.19809234  0.00264818    -0.02200
C130        C  0.30212439  0.78189874  0.99155584    -0.02200
C131        C  0.29498776  0.18495063  0.00199246    -0.02200
Zn132      Zn  0.19004616  0.78288621  0.68494696     1.49700
Zn133      Zn  0.31308545  0.81084066  0.78070784     1.49400
Zn134      Zn  0.21378517  0.68429433  0.80781190     1.49100
Zn135      Zn  0.31265501  0.68686861  0.67930743     1.49500
O136        O  0.25749638  0.74036114  0.73827504    -1.83900
O137        O  0.20740388  0.87685533  0.70114345    -0.74500
O138        O  0.30056398  0.79685926  0.87538878    -0.74300
O139        O  0.11770752  0.69160221  0.79349835    -0.73800
O140        O  0.29184352  0.91147421  0.76129091    -0.74500
O141        O  0.08863844  0.76077126  0.71366724    -0.74100
O142        O  0.23580700  0.71323777  0.90870657    -0.74700
O143        O  0.31387654  0.59221145  0.71843069    -0.74100
O144        O  0.41039255  0.79642506  0.76362502    -0.74900
O145        O  0.23357949  0.58665870  0.79311979    -0.74200
O146        O  0.40828151  0.72962899  0.67672348    -0.74700
O147        O  0.26928231  0.68132191  0.58532445    -0.74600
O148        O  0.21071291  0.77220742  0.58488375    -0.74400
C149        C  0.24180716  0.92432984  0.72576492     0.77400
C150        C  0.27389820  0.76316751  0.92248422     0.77900
C151        C  0.07248642  0.72063300  0.76105506     0.76800
C152        C  0.27972509  0.55825137  0.76110269     0.77200
C153        C  0.44014152  0.77067990  0.71429486     0.78300
C154        C  0.23004628  0.72014923  0.55500948     0.77400
C155        C  0.81895434  0.00157007  0.70511713    -0.02200
C156        C  0.21639035  0.99302115  0.70704237    -0.02200
C157        C  0.79228638  0.99650099  0.30475504    -0.02200
C158        C  0.19037325  0.99387303  0.30576183    -0.02200
Zn159      Zn  0.70500445  0.79456225  0.32290941     1.49700
Zn160      Zn  0.67561595  0.70432591  0.19486467     1.49400
Zn161      Zn  0.80326239  0.80421802  0.19696858     1.49100
Zn162      Zn  0.80062535  0.67339644  0.28815448     1.49500
O163        O  0.74603394  0.74442532  0.25016310    -1.83900
O164        O  0.61021956  0.78891035  0.30529535    -0.74500
O165        O  0.69527326  0.72186886  0.09527130    -0.74300
O166        O  0.79440541  0.89928692  0.23054334    -0.73800
O167        O  0.57504786  0.73004932  0.21974376    -0.74500
O168        O  0.72712034  0.89302512  0.31658816    -0.74100
O169        O  0.77135423  0.80288851  0.09850795    -0.74700
O170        O  0.89464771  0.67827997  0.25262690    -0.74100
O171        O  0.68909214  0.60906267  0.20965049    -0.74900
O172        O  0.90274120  0.77796623  0.20575758    -0.74200
O173        O  0.77001229  0.57580714  0.27434107    -0.74700
O174        O  0.79924903  0.69083167  0.38299221    -0.74600
O175        O  0.72859596  0.76424681  0.42012732    -0.74400
C176        C  0.56261076  0.76751914  0.26924202     0.77400
C177        C  0.72852027  0.76849937  0.06543825     0.77900
C178        C  0.76567769  0.92778171  0.27887704     0.76800
C179        C  0.92856077  0.72202651  0.22031814     0.77200
C180        C  0.72177470  0.56248497  0.23616234     0.78300
C181        C  0.77299712  0.72176947  0.43111976     0.77400
C182        C  0.00207965  0.70684498  0.79104923    -0.02200
C183        C  0.98921613  0.69957174  0.17890343    -0.02200
C184        C  0.01062721  0.30256421  0.79372002    -0.02200
C185        C  0.99022591  0.29235365  0.19284280    -0.02200
Zn186      Zn  0.27858521  0.19688534  0.31891524     1.49700
Zn187      Zn  0.31220586  0.28323558  0.18911131     1.49400
Zn188      Zn  0.18203320  0.18403307  0.19246180     1.49100
Zn189      Zn  0.19011809  0.32173687  0.28104734     1.49500
O190        O  0.23975294  0.24621863  0.24498360    -1.83900
O191        O  0.37382840  0.20464736  0.30641678    -0.74500
O192        O  0.29547680  0.26201034  0.09291264    -0.74300
O193        O  0.18996053  0.08616261  0.22592510    -0.73800
O194        O  0.41346385  0.25958147  0.21987944    -0.74500
O195        O  0.25258403  0.09939634  0.31450598    -0.74100
O196        O  0.21666296  0.18351099  0.09604696    -0.74700
O197        O  0.09427975  0.30834549  0.25249699    -0.74100
O198        O  0.29754922  0.37878497  0.18952545    -0.74900
O199        O  0.08273303  0.21416165  0.19628082    -0.74200
O200        O  0.22132818  0.42050026  0.25287171    -0.74700
O201        O  0.19585337  0.31096879  0.38005100    -0.74600
O202        O  0.25743610  0.22804544  0.41448592    -0.74400
C203        C  0.42353194  0.22477347  0.27239740     0.77400
C204        C  0.26230304  0.21566100  0.06411245     0.77900
C205        C  0.21726307  0.06164972  0.27780746     0.76800
C206        C  0.05770211  0.26733577  0.21965929     0.77200
C207        C  0.26828600  0.42946614  0.21086116     0.78300
C208        C  0.22024743  0.27627533  0.42723711     0.77400
C209        C  0.01835506  0.29742591  0.87062022    -0.05000
C210        C  0.06786397  0.33678523  0.90337854    -0.04900
C211        C  0.08134023  0.32789173  0.97023224    -0.23100
C212        C  0.03769598  0.28994229  0.00903366     0.19100
C213        C  0.98382145  0.25596516  0.97906803     0.16300
C214        C  0.97927027  0.25337527  0.91001072    -0.18100
C215        C  0.93154391  0.23202433  0.01829801    -0.19900
C216        C  0.93102753  0.24628590  0.08573547    -0.12500
C217        C  0.98776572  0.27422195  0.11800752     0.04200
C218        C  0.04263180  0.29253169  0.07788776    -0.24600
H219        H  0.09817268  0.37320900  0.87654327     0.09200
H220        H  0.12222173  0.35511683  0.99276892     0.12900
H221        H  0.94215663  0.22047038  0.88819331     0.12800
H222        H  0.88763852  0.20960372  0.99582585     0.12500
H223        H  0.88393923  0.23877637  0.10976979     0.13100
H224        H  0.08532782  0.31766673  0.09998407     0.15000
C225        C  0.99089961  0.36988539  0.20056325    -0.05000
C226        C  0.99462022  0.39864175  0.26486662    -0.04900
C227        C  0.99273680  0.46740481  0.27387658    -0.23100
C228        C  0.98910343  0.50989800  0.21875852     0.19100
C229        C  0.98643860  0.48234105  0.15456676     0.16300
C230        C  0.98426355  0.41364234  0.14603592    -0.18100
C231        C  0.98724854  0.52372391  0.09898282    -0.19900
C232        C  0.99010296  0.59200783  0.10651750    -0.12500
C233        C  0.98768868  0.62222840  0.17032790     0.04200
C234        C  0.98839090  0.57930220  0.22643703    -0.24600
H235        H  0.99761003  0.36720950  0.30863468     0.09200
H236        H  0.99482702  0.48724093  0.32386788     0.12900
H237        H  0.97676555  0.39563072  0.09610613     0.12800
H238        H  0.98752354  0.50325336  0.04917867     0.12500
H239        H  0.99470227  0.61998564  0.06075002     0.13100
H240        H  0.98967251  0.60005439  0.27607322     0.15000
C241        C  0.99360591  0.62912886  0.79574721    -0.05000
C242        C  0.94559455  0.59801318  0.83797150    -0.04900
C243        C  0.93847106  0.52962816  0.84287001    -0.23100
C244        C  0.97735464  0.48900239  0.80409130     0.19100
C245        C  0.02190910  0.51714158  0.75739143     0.16300
C246        C  0.02843479  0.58654431  0.75201646    -0.18100
C247        C  0.06015495  0.47525063  0.71810182    -0.19900
C248        C  0.05610421  0.40627675  0.72766414    -0.12500
C249        C  0.01277673  0.37753928  0.77606168     0.04200
C250        C  0.97251399  0.42051959  0.81260869    -0.24600
H251        H  0.91110170  0.62460377  0.86748195     0.09200
H252        H  0.90254024  0.50841005  0.87760943     0.12900
H253        H  0.06123427  0.60670745  0.71376934     0.12800
H254        H  0.09449733  0.49582971  0.68131806     0.12500
H255        H  0.08769733  0.37595099  0.69755375     0.13100
H256        H  0.93987469  0.40106773  0.85134832     0.15000
C257        C  0.97730486  0.72935232  0.10895455    -0.05000
C258        C  0.91314237  0.71962672  0.08083801    -0.04900
C259        C  0.90232160  0.72832069  0.01373866    -0.23100
C260        C  0.95556930  0.74469229  0.97235076     0.19100
C261        C  0.01794325  0.76123169  0.99914774     0.16300
C262        C  0.02902264  0.75280615  0.06674889    -0.18100
C263        C  0.06991280  0.78006921  0.95676413    -0.19900
C264        C  0.06285880  0.77132438  0.88873291    -0.12500
C265        C  0.00540999  0.73807342  0.86248970     0.04200
C266        C  0.94923279  0.73609612  0.90452595    -0.24600
H267        H  0.87216167  0.69863683  0.10969564     0.09200
H268        H  0.85395321  0.71529839  0.99365401     0.12900
H269        H  0.07994953  0.75603228  0.08231377     0.12800
H270        H  0.11708368  0.79784439  0.97623366     0.12500
H271        H  0.10467990  0.78771533  0.85859787     0.13100
H272        H  0.90031147  0.72375114  0.88588252     0.15000
C273        C  0.11534794  0.00742393  0.30590108    -0.05000
C274        C  0.09100165  0.05034274  0.35601411    -0.04900
C275        C  0.02402093  0.05946873  0.36456717    -0.23100
C276        C  0.97980994  0.03238581  0.31902041     0.19100
C277        C  0.00372912  0.00036109  0.26171543     0.16300
C278        C  0.07125071  0.98703465  0.25561093    -0.18100
C279        C  0.95928670  0.98322223  0.21144904    -0.19900
C280        C  0.89165600  0.98937872  0.22263444    -0.12500
C281        C  0.86706575  0.00406813  0.28711547     0.04200
C282        C  0.91192372  0.03577032  0.33053919    -0.24600
H283        H  0.12401547  0.07389214  0.39167490     0.09200
H284        H  0.00686349  0.08630269  0.40757502     0.12900
H285        H  0.08830356  0.96221306  0.21162957     0.12800
H286        H  0.97655134  0.96488262  0.16402142     0.12500
H287        H  0.85894279  0.98043202  0.18099636     0.13100
H288        H  0.89440509  0.06037908  0.37480852     0.15000
C289        C  0.22764030  0.99680373  0.63057809    -0.05000
C290        C  0.27558522  0.04083523  0.60115940    -0.04900
C291        C  0.28423063  0.04460189  0.53258025    -0.23100
C292        C  0.24481770  0.00496504  0.49114218     0.19100
C293        C  0.19816883  0.95953606  0.51932106     0.16300
C294        C  0.18982644  0.95573548  0.58789561    -0.18100
C295        C  0.15918404  0.91925856  0.47855737    -0.19900
C296        C  0.16238146  0.92790028  0.41037496    -0.12500
C297        C  0.20328851  0.97869560  0.38081768     0.04200
C298        C  0.24918972  0.01237471  0.42209309    -0.24600
H299        H  0.30633647  0.07378318  0.63071020     0.09200
H300        H  0.32050186  0.07986662  0.51203725     0.12900
H301        H  0.15146085  0.92248197  0.60777018     0.12800
H302        H  0.12408525  0.88323383  0.49952764     0.12500
H303        H  0.12893168  0.89785122  0.38019394     0.13100
H304        H  0.28765810  0.04505796  0.40292068     0.15000
C305        C  0.78049576  0.99159769  0.38131130    -0.05000
C306        C  0.71928581  0.00902797  0.41051157    -0.04900
C307        C  0.71336056  0.01567207  0.47921675    -0.23100
C308        C  0.76553586  0.99775161  0.52009848     0.19100
C309        C  0.81894060  0.96353200  0.49188788     0.16300
C310        C  0.82524294  0.95906412  0.42291801    -0.18100
C311        C  0.86561232  0.93512493  0.53296393    -0.19900
C312        C  0.86204506  0.94487695  0.60091304    -0.12500
C313        C  0.81568253  0.98878239  0.62912007     0.04200
C314        C  0.76486055  0.01199486  0.58836935    -0.24600
H315        H  0.67698202  0.02085646  0.38012873     0.09200
H316        H  0.66830473  0.03425635  0.50031361     0.12900
H317        H  0.86672735  0.93327511  0.40180422     0.12800
H318        H  0.90523293  0.90608267  0.51270649     0.12500
H319        H  0.89821272  0.92066360  0.63170093     0.13100
H320        H  0.72497431  0.04009854  0.60949273     0.15000
C321        C  0.14192559  0.99049826  0.72484089    -0.05000
C322        C  0.11648862  0.95853570  0.78299580    -0.04900
C323        C  0.04826221  0.95690202  0.79654909    -0.26300
C324        C  0.00509609  0.99064550  0.75453901     0.19100
C325        C  0.03214375  0.02889165  0.70151941     0.16300
C326        C  0.09843664  0.02677312  0.68586529    -0.18100
C327        C  0.99263536  0.06775739  0.66253561    -0.19900
C328        C  0.92545362  0.06244051  0.66990397    -0.12500
C329        C  0.89436209  0.01708481  0.71616207     0.04200
C330        C  0.93575010  0.98516148  0.76229842    -0.24600
H331        H  0.14900151  0.93336658  0.81697733     0.09200
H332        H  0.02941791  0.92892573  0.83912817     0.12900
H333        H  0.11655818  0.05474318  0.64291086     0.12800
H334        H  0.01328588  0.09912584  0.62307769     0.12500
H335        H  0.89773139  0.08858414  0.63245062     0.13100
H336        H  0.91593280  0.95472316  0.80225197     0.15000
C337        C  0.28112689  0.10893285  0.99913067    -0.05000
C338        C  0.21680077  0.07999930  0.00622233    -0.04900
C339        C  0.20698567  0.01081096  0.00586251    -0.23100
C340        C  0.26058358  0.96948332  0.99427138     0.19100
C341        C  0.32293778  0.99847967  0.97867395     0.16300
C342        C  0.33233531  0.06679461  0.97967266    -0.18100
C343        C  0.37547810  0.95905522  0.96104132    -0.19900
C344        C  0.36801956  0.89083640  0.96403115    -0.12500
C345        C  0.30866105  0.85929469  0.98817235     0.04200
C346        C  0.25314809  0.89998391  0.99670556    -0.24600
H347        H  0.17398308  0.11051027  0.01241344     0.09200
H348        H  0.15771604  0.98976978  0.01466743     0.12900
H349        H  0.38051423  0.08681107  0.96472841     0.12800
H350        H  0.42263787  0.98091633  0.94495210     0.12500
H351        H  0.40949088  0.86323547  0.94592257     0.13100
H352        H  0.20425659  0.87818741  0.00488467     0.15000
C353        C  0.61936019  0.22685475  0.00155458    -0.05000
C354        C  0.59369192  0.26330326  0.94749700    -0.04900
C355        C  0.52528649  0.26801599  0.93931276    -0.23100
C356        C  0.48144960  0.23856312  0.98565151     0.19100
C357        C  0.50674544  0.20873889  0.04345531     0.16300
C358        C  0.57484224  0.20593168  0.05249696    -0.18100
C359        C  0.46415255  0.17588521  0.08822623    -0.19900
C360        C  0.39729475  0.16887602  0.07376402    -0.12500
C361        C  0.37041382  0.19676748  0.01522268     0.04200
C362        C  0.41323279  0.23477630  0.97307343    -0.24600
H363        H  0.62533656  0.28369252  0.90848603     0.09200
H364        H  0.50666243  0.29002655  0.89409159     0.12900
H365        H  0.59312691  0.17822334  0.09477144     0.12800
H366        H  0.48295721  0.15257224  0.13273589     0.12500
H367        H  0.36590485  0.14055761  0.10810197     0.13100
H368        H  0.39476083  0.25947115  0.92925204     0.15000
C369        C  0.37359113  0.75449764  0.99506504    -0.05000
C370        C  0.40074626  0.71126187  0.94737993    -0.04900
C371        C  0.46906213  0.70133944  0.94481484    -0.23100
C372        C  0.51170334  0.73699951  0.98732756     0.19100
C373        C  0.48460903  0.77600224  0.03785896     0.16300
C374        C  0.41618049  0.77990478  0.04480546    -0.18100
C375        C  0.52599160  0.81496713  0.07763440    -0.19900
C376        C  0.59348476  0.81949489  0.06418926    -0.12500
C377        C  0.62245886  0.78426589  0.01095677     0.04200
C378        C  0.58063346  0.73727767  0.97776077    -0.24600
H379        H  0.37017436  0.68655978  0.91049633     0.09200
H380        H  0.48874165  0.66982978  0.90636206     0.12900
H381        H  0.39632693  0.81150941  0.08318129     0.12800
H382        H  0.50533255  0.84521035  0.11635490     0.12500
H383        H  0.62370585  0.85261267  0.09446022     0.13100
H384        H  0.59918228  0.70026568  0.94483522     0.15000
C385        C  0.71287945  0.87211347  0.99359282    -0.05000
C386        C  0.77651771  0.90125860  0.00465940    -0.04900
C387        C  0.78540082  0.97022657  0.00878718    -0.23100
C388        C  0.73138535  0.01135659  0.99946675     0.19100
C389        C  0.67028659  0.98282983  0.97924984     0.16300
C390        C  0.66274648  0.91451750  0.97250691    -0.18100
C391        C  0.61683458  0.02265165  0.96649734    -0.19900
C392        C  0.62284241  0.09034014  0.97579832    -0.12500
C393        C  0.68209200  0.12105218  0.00078038     0.04200
C394        C  0.73746872  0.08029288  0.00867205    -0.24600
H395        H  0.81926952  0.87081305  0.01187760     0.09200
H396        H  0.83388701  0.99110562  0.02085099     0.12900
H397        H  0.61604947  0.89453273  0.95388558     0.12800
H398        H  0.57011756  0.00153025  0.94899011     0.12500
H399        H  0.58071939  0.11806383  0.95982090     0.13100
H400        H  0.78572466  0.10197842  0.01983778     0.15000
C401        C  0.50277149  0.87659911  0.71904641    -0.05000
C402        C  0.54252862  0.90209798  0.77141880    -0.04900
C403        C  0.54288951  0.96988708  0.78631482    -0.23100
C404        C  0.50661142  0.01338755  0.74682696     0.19100
C405        C  0.46419649  0.98729046  0.69749842     0.16300
C406        C  0.45765290  0.91916300  0.68885119    -0.18100
C407        C  0.43283160  0.02943535  0.65358347    -0.19900
C408        C  0.44587430  0.09722228  0.65596166    -0.12500
C409        C  0.49127097  0.12497022  0.70233885     0.04200
C410        C  0.51530818  0.08235028  0.75260080    -0.24600
H411        H  0.57450797  0.87047114  0.79985269     0.09200
H412        H  0.57553359  0.98879028  0.82484905     0.12900
H413        H  0.42382125  0.89978949  0.65139946     0.12800
H414        H  0.40219803  0.00934050  0.61412789     0.12500
H415        H  0.42235112  0.12831365  0.61932551     0.13100
H416        H  0.54140325  0.10106491  0.79560907     0.15000
C417        C  0.52462981  0.21270623  0.62267630    -0.05000
C418        C  0.57102775  0.16939248  0.59461270    -0.04900
C419        C  0.57524508  0.16184144  0.52677838    -0.23100
C420        C  0.53597732  0.19968038  0.48562671     0.19100
C421        C  0.50025970  0.25275281  0.51130722     0.16300
C422        C  0.49667659  0.26078128  0.58037785    -0.18100
C423        C  0.46631605  0.29411961  0.46744822    -0.19900
C424        C  0.46417288  0.27938557  0.39941263    -0.12500
C425        C  0.49366536  0.22143057  0.37489473     0.04200
C426        C  0.53084349  0.18331772  0.41941625    -0.24600
H427        H  0.59883680  0.13594595  0.62556352     0.09200
H428        H  0.60617694  0.12391423  0.50670028     0.12900
H429        H  0.47131878  0.30312220  0.59929100     0.12800
H430        H  0.44025118  0.33665142  0.48583137     0.12500
H431        H  0.43813272  0.31241386  0.36659533     0.13100
H432        H  0.55543059  0.13920917  0.40258261     0.15000
C433        C  0.51261327  0.80929714  0.61486020    -0.05000
C434        C  0.54454497  0.86579170  0.58492983    -0.04900
C435        C  0.54944431  0.87253205  0.51681116    -0.23100
C436        C  0.52396872  0.82254892  0.47626334     0.19100
C437        C  0.49872686  0.76259509  0.50398810     0.16300
C438        C  0.49700082  0.75482969  0.57321938    -0.18100
C439        C  0.47549433  0.71197505  0.46182124    -0.19900
C440        C  0.47404487  0.72272860  0.39305930    -0.12500
C441        C  0.49519185  0.78457309  0.36552241     0.04200
C442        C  0.52410172  0.83214803  0.40816014    -0.24600
H443        H  0.56631009  0.90560931  0.61422405     0.09200
H444        H  0.57196587  0.91758307  0.49593480     0.12900
H445        H  0.48330184  0.70664661  0.59371674     0.12800
H446        H  0.45726772  0.66485573  0.48196789     0.12500
H447        H  0.45573876  0.68310079  0.36127831     0.13100
H448        H  0.54753021  0.87719752  0.38853021     0.15000
C449        C  0.49816263  0.87240361  0.27356161    -0.05000
C450        C  0.54607703  0.90244673  0.23029661    -0.04900
C451        C  0.55125191  0.97150099  0.22245797    -0.23100
C452        C  0.51041535  0.01267801  0.25944582     0.19100
C453        C  0.46227742  0.98345043  0.30218703     0.16300
C454        C  0.45459156  0.91473366  0.30670404    -0.18100
C455        C  0.42477138  0.02290610  0.34343604    -0.19900
C456        C  0.43494896  0.09105337  0.34312242    -0.12500
C457        C  0.48132275  0.12296260  0.29930711     0.04200
C458        C  0.51843599  0.08227400  0.25661312    -0.24600
H459        H  0.58101826  0.87315931  0.20327005     0.09200
H460        H  0.58902550  0.99265717  0.18953501     0.12900
H461        H  0.41860190  0.89458590  0.34195924     0.12800
H462        H  0.38957371  0.00063704  0.37833054     0.12500
H463        H  0.40718928  0.11874469  0.37925152     0.13100
H464        H  0.55461910  0.10408816  0.22244177     0.15000
C465        C  0.70811446  0.51740044  0.89068732    -0.05000
C466        C  0.65836833  0.55806771  0.91852693    -0.04900
C467        C  0.64993070  0.56416196  0.98602455    -0.23100
C468        C  0.69140980  0.53110767  0.02858245     0.19100
C469        C  0.74696222  0.49807805  0.00351950     0.16300
C470        C  0.75619485  0.49273748  0.93438227    -0.18100
C471        C  0.79038111  0.46885639  0.04831083    -0.19900
C472        C  0.77562508  0.46837936  0.11629091    -0.12500
C473        C  0.71548860  0.49445259  0.14058014     0.04200
C474        C  0.67608474  0.52908759  0.09579818    -0.24600
H475        H  0.61984063  0.57919068  0.88849154     0.09200
H476        H  0.60796819  0.59099603  0.00476352     0.12900
H477        H  0.79891849  0.46747538  0.91614032     0.12800
H478        H  0.83486309  0.44539670  0.03086549     0.12500
H479        H  0.81086121  0.44628530  0.14965467     0.13100
H480        H  0.63237442  0.55396392  0.11316434     0.15000
C481        C  0.62333390  0.49060707  0.23093882    -0.05000
C482        C  0.59636968  0.52085860  0.28821088    -0.04900
C483        C  0.52776823  0.52499076  0.29646341    -0.23100
C484        C  0.48518708  0.49687974  0.24897923     0.19100
C485        C  0.51249173  0.45947793  0.19668963     0.16300
C486        C  0.58024379  0.45559075  0.18885636    -0.18100
C487        C  0.47230198  0.42960513  0.14958592    -0.19900
C488        C  0.40595779  0.44159707  0.15014036    -0.12500
C489        C  0.37629595  0.48247421  0.19917755     0.04200
C490        C  0.41656060  0.50733870  0.25085304    -0.24600
H491        H  0.62833186  0.54403452  0.32500466     0.09200
H492        H  0.50832171  0.55202209  0.33837728     0.12900
H493        H  0.59954152  0.42819536  0.14705378     0.12800
H494        H  0.49255885  0.39999307  0.10982039     0.12500
H495        H  0.37744454  0.42050517  0.10945224     0.13100
H496        H  0.39550612  0.53641589  0.29043951     0.15000
C497        C  0.62715673  0.47763771  0.80924736    -0.05000
C498        C  0.59802945  0.43504014  0.85836828    -0.04900
C499        C  0.52985765  0.42794648  0.86382538    -0.23100
C500        C  0.48997547  0.45605072  0.81568746     0.19100
C501        C  0.51907957  0.48708787  0.75909310     0.16300
C502        C  0.58760830  0.49875723  0.75636275    -0.18100
C503        C  0.47864825  0.50688404  0.70709990    -0.19900
C504        C  0.41018602  0.50357186  0.71528310    -0.12500
C505        C  0.38126249  0.48796365  0.77817318     0.04200
C506        C  0.42149562  0.45537275  0.82425676    -0.24600
H507        H  0.62793335  0.41328503  0.89699820     0.09200
H508        H  0.50837558  0.40338591  0.90714799     0.12900
H509        H  0.60953325  0.52576068  0.71461438     0.12800
H510        H  0.49974621  0.52513217  0.66057611     0.12500
H511        H  0.38034732  0.51408926  0.67216429     0.13100
H512        H  0.39987158  0.43116791  0.86781133     0.15000
C513        C  0.28762817  0.49656240  0.86540109    -0.05000
C514        C  0.22322959  0.47801346  0.88933204    -0.04900
C515        C  0.20906545  0.47616238  0.95743968    -0.23100
C516        C  0.25659642  0.49878745  0.00268731     0.19100
C517        C  0.31424813  0.53186338  0.97757057     0.16300
C518        C  0.32896565  0.53149124  0.90966698    -0.18100
C519        C  0.35731725  0.56394847  0.02074244    -0.19900
C520        C  0.34627545  0.55957871  0.08826457    -0.12500
C521        C  0.29596147  0.51631152  0.11578737     0.04200
C522        C  0.24839103  0.48909321  0.07198085    -0.24600
H523        H  0.18430606  0.46286793  0.85527933     0.09200
H524        H  0.16099191  0.45825089  0.97451304     0.12900
H525        H  0.37359433  0.55692129  0.89162485     0.12800
H526        H  0.40153383  0.58983078  0.00274581     0.12500
H527        H  0.38366043  0.58341767  0.11905495     0.13100
H528        H  0.20700822  0.45923759  0.09112443     0.15000
C529        C  0.87412291  0.74920758  0.49692863    -0.05000
C530        C  0.90033937  0.78289889  0.43980202    -0.04900
C531        C  0.96888160  0.79207980  0.43160441    -0.23100
C532        C  0.01165716  0.76749211  0.47988420     0.19100
C533        C  0.98482305  0.74491187  0.54124762     0.16300
C534        C  0.91683281  0.74080704  0.55092039    -0.18100
C535        C  0.02481721  0.71610850  0.58851145    -0.19900
C536        C  0.08972135  0.70375959  0.57322149    -0.12500
C537        C  0.11777677  0.72221125  0.51084383     0.04200
C538        C  0.07896463  0.75809124  0.46558000    -0.24600
H539        H  0.86936448  0.79715551  0.39866232     0.09200
H540        H  0.98813992  0.81218250  0.38502375     0.12900
H541        H  0.89853570  0.71851551  0.59665205     0.12800
H542        H  0.00429165  0.69678098  0.63478437     0.12500
H543        H  0.11759005  0.67539843  0.60895787     0.13100
H544        H  0.09866230  0.77338232  0.41754446     0.15000
C545        C  0.20334296  0.36815594  0.49971695    -0.05000
C546        C  0.26819778  0.39709924  0.50205925    -0.04900
C547        C  0.27859948  0.46588521  0.50299008    -0.23100
C548        C  0.22467008  0.50762260  0.49823577     0.19100
C549        C  0.16052437  0.47941744  0.49029393     0.16300
C550        C  0.15050248  0.41103773  0.48971125    -0.18100
C551        C  0.10681916  0.51973779  0.48046585    -0.19900
C552        C  0.11570505  0.58775964  0.48176146    -0.12500
C553        C  0.17851430  0.61827343  0.49566456     0.04200
C554        C  0.23367278  0.57688804  0.49895865    -0.24600
H555        H  0.31134045  0.36637832  0.50188829     0.09200
H556        H  0.32872086  0.48626518  0.50647081     0.12900
H557        H  0.10129153  0.39234079  0.47812456     0.12800
H558        H  0.05773521  0.49867675  0.47119067     0.12500
H559        H  0.07231779  0.61595003  0.47052102     0.13100
H560        H  0.28343888  0.59821328  0.50124307     0.15000
C561        C  0.78566833  0.38257041  0.50392365    -0.05000
C562        C  0.72167949  0.40903409  0.50717672    -0.04900
C563        C  0.71326678  0.47784311  0.50651656    -0.23100
C564        C  0.76849636  0.52139131  0.50039882     0.19100
C565        C  0.83181313  0.49548068  0.49144199     0.16300
C566        C  0.83947697  0.42729243  0.49060325    -0.18100
C567        C  0.88716392  0.53789859  0.48298035    -0.19900
C568        C  0.88038896  0.60617048  0.48484011    -0.12500
C569        C  0.81789623  0.63383679  0.49649710     0.04200
C570        C  0.76176102  0.59027645  0.50208080    -0.24600
H571        H  0.67825647  0.37644545  0.51129048     0.09200
H572        H  0.66379715  0.49691288  0.51124313     0.12900
H573        H  0.88841144  0.40981877  0.47922378     0.12800
H574        H  0.93591705  0.51822229  0.47465840     0.12500
H575        H  0.92437506  0.63636964  0.47520216     0.13100
H576        H  0.71291927  0.61057010  0.50828362     0.15000
C577        C  0.87123384  0.29545373  0.51877449    -0.05000
C578        C  0.90117781  0.32290555  0.57653828    -0.04900
C579        C  0.96846700  0.31841005  0.58783323    -0.23100
C580        C  0.00838540  0.28765544  0.54136373     0.19100
C581        C  0.97952775  0.25701736  0.48512480     0.16300
C582        C  0.91104499  0.25897515  0.47518974    -0.18100
C583        C  0.02002902  0.22737839  0.43815047    -0.19900
C584        C  0.08863404  0.23275499  0.44403814    -0.12500
C585        C  0.11851116  0.27036771  0.49610058     0.04200
C586        C  0.07712098  0.29151458  0.54795753    -0.24600
H587        H  0.87203540  0.34987476  0.61224949     0.09200
H588        H  0.98949918  0.34171573  0.63139026     0.12900
H589        H  0.89007995  0.23399072  0.43233906     0.12800
H590        H  0.99877574  0.20304944  0.39496791     0.12500
H591        H  0.11744271  0.20974538  0.40547756     0.13100
H592        H  0.09870725  0.31788663  0.58982979     0.15000
loop_ 
_geom_bond_atom_site_label_1 
_geom_bond_atom_site_label_2 
_geom_bond_distance 
_geom_bond_site_symmetry_2 
_ccdc_geom_bond_type 
Zn1           O5   2.008       .  S
Zn1           O6   2.082       .  S
Zn1          O10   2.081       .  S
Zn1          O17   2.136       .  S
Zn2           O5   1.933       .  S
Zn2           O7   2.091       .  S
Zn2           O9   2.009       .  S
Zn2          O13   1.969       .  S
Zn3           O5   1.971       .  S
Zn3           O8   2.076       .  S
Zn3          O11   2.006       .  S
Zn3          O14   2.139       .  S
Zn4           O5   1.960       .  S
Zn4          O12   1.995       .  S
Zn4          O15   2.087       .  S
Zn4          O16   2.030       .  S
O6           C18   1.273       .  A
O7           C19   1.277       .  A
O8           C20   1.285       .  A
O9           C18   1.280       .  A
O10          C20   1.283       .  A
O11          C19   1.282       .  A
O12          C21   1.274       .  A
O13          C22   1.275       .  A
O14          C21   1.279       .  A
O15          C22   1.272       .  A
O16          C23   1.274       .  A
O17          C23   1.290       .  A
C18         C155   1.561   1_565  S
C19          C26   1.548       .  S
C20         C182   1.559   1_655  S
C21          C30   1.557       .  S
C22          C34   1.532       .  S
C23         C128   1.568       .  S
C24          C99   1.547       .  S
C24         C123   1.550       .  S
C24         C561   1.552       .  S
C24         C577   1.554       .  S
C25          C56   1.562       .  S
C25         C208   1.530       .  S
C25         C545   1.548       .  S
C25         C585   1.559       .  S
C26         C181   1.530       .  S
C26         C529   1.549       .  S
C26         C569   1.554       .  S
C27          C78   1.549       .  S
C27         C154   1.566       .  S
C27         C537   1.545       .  S
C27         C553   1.549       .  S
C28          C54   1.551       .  S
C28         C152   1.565       .  S
C28         C505   1.544       .  S
C28         C513   1.563       .  S
C29          C77   1.546       .  S
C29         C207   1.558       .  S
C29         C489   1.557       .  S
C29         C521   1.555       .  S
C30         C125   1.554       .  S
C30         C465   1.558       .  S
C30         C497   1.539       .  S
C31         C101   1.523       .  S
C31         C180   1.520       .  S
C31         C473   1.543       .  S
C31         C481   1.541       .  S
C32          C76   1.547       .  S
C32         C176   1.552       .  S
C32         C441   1.544       .  S
C32         C449   1.557       .  S
C33         C100   1.556       .  S
C33         C203   1.564       .  S
C33         C425   1.547       .  S
C33         C457   1.559       .  S
C34         C153   1.560       .  S
C34         C401   1.550       .  S
C34         C433   1.551       .  S
C35          C55   1.554       .  S
C35         C124   1.549       .  S
C35         C409   1.562       .  S
C35         C417   1.542       .  S
Zn36         O40   1.997       .  S
Zn36         O41   1.958       .  S
Zn36         O45   2.040       .  S
Zn36         O52   2.111       .  S
Zn37         O40   1.915       .  S
Zn37         O42   1.971       .  S
Zn37         O44   2.135       .  S
Zn37         O48   1.952       .  S
Zn38         O40   1.984       .  S
Zn38         O43   2.076       .  S
Zn38         O46   2.095       .  S
Zn38         O49   2.060       .  S
Zn39         O40   1.983       .  S
Zn39         O47   2.053       .  S
Zn39         O50   2.162       .  S
Zn39         O51   1.959       .  S
O41          C53   1.269       .  A
O42          C54   1.273       .  A
O43          C55   1.281       .  A
O44          C53   1.278       .  A
O45          C55   1.279       .  A
O46          C54   1.281       .  A
O47          C56   1.280       .  A
O48          C57   1.269       .  A
O49          C56   1.279       .  A
O50          C57   1.274       .  A
O51          C58   1.276       .  A
O52          C58   1.275       .  A
C53         C131   1.540   1_556  S
C57         C184   1.561       .  S
C58         C156   1.535   1_545  S
Zn59         O63   1.933       .  S
Zn59         O64   2.004       .  S
Zn59         O68   2.100       .  S
Zn59         O75   2.037       .  S
Zn60         O63   1.982       .  S
Zn60         O65   1.984       .  S
Zn60         O67   2.104       .  S
Zn60         O71   2.045       .  S
Zn61         O63   1.977       .  S
Zn61         O66   2.043       .  S
Zn61         O69   2.139       .  S
Zn61         O72   2.055       .  S
Zn62         O63   2.015       .  S
Zn62         O70   2.087       .  S
Zn62         O73   2.122       .  S
Zn62         O74   2.121       .  S
O64          C76   1.279       .  A
O65          C77   1.269       .  A
O66          C78   1.285       .  A
O67          C76   1.271       .  A
O68          C78   1.278       .  A
O69          C77   1.282       .  A
O70          C79   1.280       .  A
O71          C80   1.282       .  A
O72          C79   1.282       .  A
O73          C80   1.290       .  A
O74          C81   1.279       .  A
O75          C81   1.285       .  A
C79         C183   1.559   1_455  S
C80         C130   1.569   1_554  S
C81         C158   1.579       .  S
Zn82         O86   1.978       .  S
Zn82         O87   1.961       .  S
Zn82         O91   2.084       .  S
Zn82         O98   1.979       .  S
Zn83         O86   1.924       .  S
Zn83         O88   2.018       .  S
Zn83         O90   2.159       .  S
Zn83         O94   2.020       .  S
Zn84         O86   1.952       .  S
Zn84         O89   1.942       .  S
Zn84         O92   2.117       .  S
Zn84         O95   2.016       .  S
Zn85         O86   2.019       .  S
Zn85         O93   2.119       .  S
Zn85         O96   2.060       .  S
Zn85         O97   2.128       .  S
O87          C99   1.271       .  A
O88         C100   1.282       .  A
O89         C101   1.271       .  A
O90          C99   1.283       .  A
O91         C101   1.268       .  A
O92         C100   1.273       .  A
O93         C102   1.283       .  A
O94         C103   1.279       .  A
O95         C102   1.278       .  A
O96         C103   1.275       .  A
O97         C104   1.284       .  A
O98         C104   1.276       .  A
C102        C129   1.568       .  S
C103        C157   1.552   1_545  S
C104        C185   1.551       .  S
Zn105       O109   1.977       .  S
Zn105       O110   2.151       .  S
Zn105       O114   2.015       .  S
Zn105       O121   1.976       .  S
Zn106       O109   1.954       .  S
Zn106       O111   2.035       .  S
Zn106       O113   1.940       .  S
Zn106       O117   2.167       .  S
Zn107       O109   1.989       .  S
Zn107       O112   2.097       .  S
Zn107       O115   2.062       .  S
Zn107       O118   2.071       .  S
Zn108       O109   1.980       .  S
Zn108       O116   2.065       .  S
Zn108       O119   2.016       .  S
Zn108       O120   2.117       .  S
O110        C122   1.275       .  A
O111        C123   1.277       .  A
O112        C124   1.284       .  A
O113        C122   1.264       .  A
O114        C124   1.275       .  A
O115        C123   1.280       .  A
O116        C125   1.276       .  A
O117        C126   1.285       .  A
O118        C125   1.282       .  A
O119        C126   1.282       .  A
O120        C127   1.279       .  A
O121        C127   1.278       .  A
C122        C155   1.557       .  S
C126        C184   1.569   1_655  S
C127        C129   1.541   1_556  S
C128        C177   1.570   1_556  S
C128        C377   1.578   1_556  S
C128        C385   1.550       .  S
C129        C353   1.559       .  S
C129        C393   1.556       .  S
C130        C150   1.547       .  S
C130        C345   1.562       .  S
C130        C369   1.560       .  S
C131        C204   1.549       .  S
C131        C337   1.550   1_554  S
C131        C361   1.558       .  S
Zn132       O136   1.950       .  S
Zn132       O137   1.945       .  S
Zn132       O141   2.158       .  S
Zn132       O148   2.066       .  S
Zn133       O136   1.984       .  S
Zn133       O138   1.936       .  S
Zn133       O140   2.118       .  S
Zn133       O144   2.021       .  S
Zn134       O136   1.980       .  S
Zn134       O139   1.971       .  S
Zn134       O142   2.158       .  S
Zn134       O145   2.040       .  S
Zn135       O136   1.968       .  S
Zn135       O143   2.059       .  S
Zn135       O146   2.092       .  S
Zn135       O147   2.087       .  S
O137        C149   1.270       .  A
O138        C150   1.270       .  A
O139        C151   1.277       .  A
O140        C149   1.271       .  A
O141        C151   1.281       .  A
O142        C150   1.281       .  A
O143        C152   1.281       .  A
O144        C153   1.277       .  A
O145        C152   1.280       .  A
O146        C153   1.284       .  A
O147        C154   1.282       .  A
O148        C154   1.281       .  A
C149        C156   1.534       .  S
C151        C182   1.558       .  S
C155        C313   1.552   1_545  S
C155        C329   1.562       .  S
C156        C289   1.553       .  S
C156        C321   1.543       .  S
C157        C178   1.563       .  S
C157        C281   1.552   1_565  S
C157        C305   1.558       .  S
C158        C205   1.556   1_565  S
C158        C273   1.546   1_565  S
C158        C297   1.562       .  S
Zn159       O163   1.974       .  S
Zn159       O164   1.947       .  S
Zn159       O168   2.024       .  S
Zn159       O175   2.104       .  S
Zn160       O163   1.967       .  S
Zn160       O165   2.065       .  S
Zn160       O167   2.166       .  S
Zn160       O171   1.966       .  S
Zn161       O163   1.955       .  S
Zn161       O166   2.046       .  S
Zn161       O169   2.084       .  S
Zn161       O172   2.098       .  S
Zn162       O163   1.981       .  S
Zn162       O170   2.024       .  S
Zn162       O173   2.064       .  S
Zn162       O174   1.940       .  S
O164        C176   1.273       .  A
O165        C177   1.283       .  A
O166        C178   1.276       .  A
O167        C176   1.280       .  A
O168        C178   1.276       .  A
O169        C177   1.283       .  A
O170        C179   1.274       .  A
O171        C180   1.277       .  A
O172        C179   1.287       .  A
O173        C180   1.266       .  A
O174        C181   1.275       .  A
O175        C181   1.275       .  A
C179        C183   1.556       .  S
C182        C241   1.572   1_455  S
C182        C265   1.572       .  S
C183        C233   1.568       .  S
C183        C257   1.547       .  S
C184        C209   1.557       .  S
C184        C249   1.548       .  S
C185        C206   1.562   1_655  S
C185        C217   1.550       .  S
C185        C225   1.570       .  S
Zn186       O190   1.961       .  S
Zn186       O191   1.939       .  S
Zn186       O195   2.021       .  S
Zn186       O202   2.070       .  S
Zn187       O190   1.967       .  S
Zn187       O192   2.010       .  S
Zn187       O194   2.202       .  S
Zn187       O198   1.955       .  S
Zn188       O190   1.996       .  S
Zn188       O193   2.089       .  S
Zn188       O196   2.057       .  S
Zn188       O199   2.111       .  S
Zn189       O190   1.983       .  S
Zn189       O197   2.031       .  S
Zn189       O200   2.142       .  S
Zn189       O201   2.004       .  S
O191        C203   1.267       .  A
O192        C204   1.277       .  A
O193        C205   1.284       .  A
O194        C203   1.284       .  A
O195        C205   1.269       .  A
O196        C204   1.279       .  A
O197        C206   1.280       .  A
O198        C207   1.269       .  A
O199        C206   1.287       .  A
O200        C207   1.275       .  A
O201        C208   1.283       .  A
O202        C208   1.270       .  A
C209        C210   1.424       .  A
C209        C214   1.408   1_455  A
C210        C211   1.384       .  A
C210        H219   1.082       .  S
C211        C212   1.385   1_556  A
C211        H220   1.081       .  S
C212        C218   1.389       .  A
C212        C213   1.408   1_454  A
C213        C215   1.388   1_556  A
C213        C214   1.392       .  A
C214        H221   1.082       .  S
C215        C216   1.387       .  A
C215        H222   1.085   1_554  S
C216        C217   1.422       .  A
C216        H223   1.071       .  S
C217        C218   1.407   1_655  A
C218        H224   1.085       .  S
C225        C226   1.421       .  A
C225        C230   1.411       .  A
C226        C227   1.399       .  A
C226        H235   1.084       .  S
C227        C228   1.399       .  A
C227        H236   1.084       .  S
C228        C234   1.408       .  A
C228        C229   1.408       .  A
C229        C231   1.390       .  A
C229        C230   1.395       .  A
C230        H237   1.079       .  S
C231        C232   1.384       .  A
C231        H238   1.085       .  S
C232        C233   1.424       .  A
C232        H239   1.078       .  S
C233        C234   1.417       .  A
C234        H240   1.084       .  S
C241        C242   1.416       .  A
C241        C246   1.428   1_655  A
C242        C243   1.384       .  A
C242        H251   1.070       .  S
C243        C244   1.389       .  A
C243        H252   1.082       .  S
C244        C250   1.389       .  A
C244        C245   1.403   1_655  A
C245        C247   1.403       .  A
C245        C246   1.404       .  A
C246        H253   1.082       .  S
C247        C248   1.401       .  A
C247        H254   1.084       .  S
C248        C249   1.415       .  A
C248        H255   1.081       .  S
C249        C250   1.411   1_455  A
C250        H256   1.082       .  S
C257        C258   1.424       .  A
C257        C262   1.411   1_655  A
C258        C259   1.378       .  A
C258        H267   1.083       .  S
C259        C260   1.387   1_554  A
C259        H268   1.084   1_554  S
C260        C266   1.381       .  A
C260        C261   1.404   1_655  A
C261        C263   1.391       .  A
C261        C262   1.388   1_556  A
C262        H269   1.076       .  S
C263        C264   1.387       .  A
C263        H270   1.083       .  S
C264        C265   1.427       .  A
C264        H271   1.080       .  S
C265        C266   1.410   1_455  A
C266        H272   1.081       .  S
C273        C274   1.426       .  A
C273        C278   1.405   1_545  A
C274        C275   1.379       .  A
C274        H283   1.083       .  S
C275        C276   1.385   1_455  A
C275        H284   1.083       .  S
C276        C282   1.392       .  A
C276        C277   1.413   1_655  A
C277        C279   1.392   1_445  A
C277        C278   1.401   1_545  A
C278        H285   1.078       .  S
C279        C280   1.391       .  A
C279        H286   1.084       .  S
C280        C281   1.421   1_565  A
C280        H287   1.081       .  S
C281        C282   1.404       .  A
C282        H288   1.084       .  S
C289        C290   1.419   1_565  A
C289        C294   1.408       .  A
C290        C291   1.390       .  A
C290        H299   1.078       .  S
C291        C292   1.393       .  A
C291        H300   1.084       .  S
C292        C298   1.397       .  A
C292        C293   1.409   1_545  A
C293        C295   1.388       .  A
C293        C294   1.389       .  A
C294        H301   1.083       .  S
C295        C296   1.381       .  A
C295        H302   1.082       .  S
C296        C297   1.422       .  A
C296        H303   1.084       .  S
C297        C298   1.409   1_565  A
C298        H304   1.073       .  S
C305        C306   1.419   1_565  A
C305        C310   1.406       .  A
C306        C307   1.393       .  A
C306        H315   1.083       .  S
C307        C308   1.393   1_545  A
C307        H316   1.079       .  S
C308        C314   1.403   1_565  A
C308        C309   1.414       .  A
C309        C311   1.388       .  A
C309        C310   1.395       .  A
C310        H317   1.084       .  S
C311        C312   1.383       .  A
C311        H318   1.083       .  S
C312        C313   1.423       .  A
C312        H319   1.083       .  S
C313        C314   1.404   1_565  A
C314        H320   1.083       .  S
C321        C322   1.418       .  A
C321        C326   1.397   1_565  A
C322        C323   1.402       .  A
C322        H331   1.083       .  S
C323        C324   1.402       .  A
C323        H332   1.083       .  S
C324        C330   1.409   1_455  A
C324        C325   1.410   1_565  A
C325        C327   1.377   1_455  A
C325        C326   1.375       .  A
C326        H333   1.085       .  S
C327        C328   1.364       .  A
C327        H334   1.085   1_655  S
C328        C329   1.430       .  A
C328        H335   1.083       .  S
C329        C330   1.414   1_545  A
C330        H336   1.076       .  S
C337        C338   1.414   1_556  A
C337        C342   1.411       .  A
C338        C339   1.402       .  A
C338        H347   1.081       .  S
C339        C340   1.403   1_544  A
C339        H348   1.083   1_545  S
C340        C346   1.404       .  A
C340        C341   1.406       .  A
C341        C343   1.388       .  A
C341        C342   1.384   1_565  A
C342        H349   1.083       .  S
C343        C344   1.379       .  A
C343        H350   1.085       .  S
C344        C345   1.422       .  A
C344        H351   1.081       .  S
C345        C346   1.417       .  A
C346        H352   1.080   1_556  S
C353        C354   1.416   1_554  A
C353        C358   1.414       .  A
C354        C355   1.397       .  A
C354        H363   1.081       .  S
C355        C356   1.400       .  A
C355        H364   1.082       .  S
C356        C362   1.401       .  A
C356        C357   1.409   1_556  A
C357        C359   1.393       .  A
C357        C358   1.390       .  A
C358        H365   1.085       .  S
C359        C360   1.385       .  A
C359        H366   1.083       .  S
C360        C361   1.417       .  A
C360        H367   1.084       .  S
C361        C362   1.414   1_554  A
C362        H368   1.082       .  S
C369        C370   1.417       .  A
C369        C374   1.410   1_556  A
C370        C371   1.399       .  A
C370        H379   1.081       .  S
C371        C372   1.402       .  A
C371        H380   1.084       .  S
C372        C378   1.403       .  A
C372        C373   1.406   1_556  A
C373        C375   1.389       .  A
C373        C374   1.392       .  A
C374        H381   1.085       .  S
C375        C376   1.388       .  A
C375        H382   1.080       .  S
C376        C377   1.420       .  A
C376        H383   1.083       .  S
C377        C378   1.422   1_554  A
C378        H384   1.074       .  S
C385        C386   1.416   1_556  A
C385        C390   1.407       .  A
C386        C387   1.399       .  A
C386        H395   1.082       .  S
C387        C388   1.400   1_564  A
C387        H396   1.083       .  S
C388        C394   1.404   1_556  A
C388        C389   1.408   1_545  A
C389        C391   1.386   1_565  A
C389        C390   1.387       .  A
C390        H397   1.084       .  S
C391        C392   1.379       .  A
C391        H398   1.084       .  S
C392        C393   1.426   1_556  A
C392        H399   1.079       .  S
C393        C394   1.414       .  A
C394        H400   1.081       .  S
C401        C402   1.416       .  A
C401        C406   1.405       .  A
C402        C403   1.399       .  A
C402        H411   1.082       .  S
C403        C404   1.402   1_565  A
C403        H412   1.083       .  S
C404        C410   1.401       .  A
C404        C405   1.407   1_545  A
C405        C407   1.388   1_565  A
C405        C406   1.387       .  A
C406        H413   1.085       .  S
C407        C408   1.384       .  A
C407        H414   1.081       .  S
C408        C409   1.416       .  A
C408        H415   1.083       .  S
C409        C410   1.418       .  A
C410        H416   1.078       .  S
C417        C418   1.415       .  A
C417        C422   1.415       .  A
C418        C419   1.375       .  A
C418        H427   1.084       .  S
C419        C420   1.387       .  A
C419        H428   1.079       .  S
C420        C426   1.376       .  A
C420        C421   1.405       .  A
C421        C423   1.403       .  A
C421        C422   1.400       .  A
C422        H429   1.077       .  S
C423        C424   1.401       .  A
C423        H430   1.083       .  S
C424        C425   1.415       .  A
C424        H431   1.082       .  S
C425        C426   1.408       .  A
C426        H432   1.085       .  S
C433        C434   1.421       .  A
C433        C438   1.413       .  A
C434        C435   1.378       .  A
C434        H443   1.082       .  S
C435        C436   1.388       .  A
C435        H444   1.085       .  S
C436        C442   1.381       .  A
C436        C437   1.408       .  A
C437        C439   1.401       .  A
C437        C438   1.399       .  A
C438        H445   1.080       .  S
C439        C440   1.398       .  A
C439        H446   1.084       .  S
C440        C441   1.414       .  A
C440        H447   1.083       .  S
C441        C442   1.406       .  A
C442        H448   1.083       .  S
C449        C450   1.418       .  A
C449        C454   1.410       .  A
C450        C451   1.400       .  A
C450        H459   1.079       .  S
C451        C452   1.400   1_565  A
C451        H460   1.084       .  S
C452        C458   1.407       .  A
C452        C453   1.408   1_545  A
C453        C455   1.388   1_565  A
C453        C454   1.391       .  A
C454        H461   1.082       .  S
C455        C456   1.382       .  A
C455        H462   1.083       .  S
C456        C457   1.420       .  A
C456        H463   1.082       .  S
C457        C458   1.416       .  A
C458        H464   1.083       .  S
C465        C466   1.428       .  A
C465        C470   1.410       .  A
C466        C467   1.373       .  A
C466        H475   1.081       .  S
C467        C468   1.381   1_556  A
C467        H476   1.084   1_556  S
C468        C474   1.385       .  A
C468        C469   1.412       .  A
C469        C471   1.398       .  A
C469        C470   1.406   1_554  A
C470        H477   1.077       .  S
C471        C472   1.397       .  A
C471        H478   1.084       .  S
C472        C473   1.421       .  A
C472        H479   1.082       .  S
C473        C474   1.399       .  A
C474        H480   1.084       .  S
C481        C482   1.419       .  A
C481        C486   1.396       .  A
C482        C483   1.399       .  A
C482        H491   1.083       .  S
C483        C484   1.399       .  A
C483        H492   1.084       .  S
C484        C490   1.407       .  A
C484        C485   1.415       .  A
C485        C487   1.379       .  A
C485        C486   1.380       .  A
C486        H493   1.085       .  S
C487        C488   1.367       .  A
C487        H494   1.085       .  S
C488        C489   1.428       .  A
C488        H495   1.084       .  S
C489        C490   1.407       .  A
C490        H496   1.083       .  S
C497        C498   1.419       .  A
C497        C502   1.403       .  A
C498        C499   1.383       .  A
C498        H507   1.083       .  S
C499        C500   1.389       .  A
C499        H508   1.082       .  S
C500        C506   1.392       .  A
C500        C501   1.412       .  A
C501        C503   1.392       .  A
C501        C502   1.397       .  A
C502        H509   1.083       .  S
C503        C504   1.390       .  A
C503        H510   1.084       .  S
C504        C505   1.420       .  A
C504        H511   1.081       .  S
C505        C506   1.406       .  A
C506        H512   1.084       .  S
C513        C514   1.423       .  A
C513        C518   1.401       .  A
C514        C515   1.397       .  A
C514        H523   1.083       .  S
C515        C516   1.394   1_556  A
C515        H524   1.080       .  S
C516        C522   1.413       .  A
C516        C517   1.414   1_554  A
C517        C519   1.381   1_556  A
C517        C518   1.395       .  A
C518        H525   1.084       .  S
C519        C520   1.376       .  A
C519        H526   1.081       .  S
C520        C521   1.427       .  A
C520        H527   1.082       .  S
C521        C522   1.407       .  A
C522        H528   1.083       .  S
C529        C530   1.423       .  A
C529        C534   1.401       .  A
C530        C531   1.399       .  A
C530        H539   1.081       .  S
C531        C532   1.399   1_655  A
C531        H540   1.084       .  S
C532        C538   1.405       .  A
C532        C533   1.412   1_455  A
C533        C535   1.384   1_655  A
C533        C534   1.385       .  A
C534        H541   1.080       .  S
C535        C536   1.374       .  A
C535        H542   1.082       .  S
C536        C537   1.417       .  A
C536        H543   1.084       .  S
C537        C538   1.412       .  A
C538        H544   1.082       .  S
C545        C546   1.419       .  A
C545        C550   1.405       .  A
C546        C547   1.396       .  A
C546        H555   1.082       .  S
C547        C548   1.397       .  A
C547        H556   1.084       .  S
C548        C554   1.402       .  A
C548        C549   1.409       .  A
C549        C551   1.386       .  A
C549        C550   1.386       .  A
C550        H557   1.079       .  S
C551        C552   1.377       .  A
C551        H558   1.084       .  S
C552        C553   1.423       .  A
C552        H559   1.081       .  S
C553        C554   1.411       .  A
C554        H560   1.083       .  S
C561        C562   1.412       .  A
C561        C566   1.415       .  A
C562        C563   1.401       .  A
C562        H571   1.083       .  S
C563        C564   1.404       .  A
C563        H572   1.084       .  S
C564        C570   1.398       .  A
C564        C565   1.405       .  A
C565        C567   1.397       .  A
C565        C566   1.386       .  A
C566        H573   1.082       .  S
C567        C568   1.386       .  A
C567        H574   1.084       .  S
C568        C569   1.412       .  A
C568        H575   1.078       .  S
C569        C570   1.417       .  A
C570        H576   1.084       .  S
C577        C578   1.419       .  A
C577        C582   1.409       .  A
C578        C579   1.383       .  A
C578        H587   1.084       .  S
C579        C580   1.390   1_655  A
C579        H588   1.079       .  S
C580        C586   1.394       .  A
C580        C581   1.411   1_455  A
C581        C583   1.394   1_655  A
C581        C582   1.399       .  A
C582        H589   1.082       .  S
C583        C584   1.391       .  A
C583        H590   1.083   1_455  S
C584        C585   1.422       .  A
C584        H591   1.081       .  S
C585        C586   1.408       .  A
C586        H592   1.084       .  S
