geometry optimzed in LAMMPS
_audit_creation_date              2020-12-01 
_audit_creation_method            'lammps2cif' 
_symmetry_space_group_name_H-M    'P1' 
_symmetry_Int_Tables_number       1 
_symmetry_cell_setting            triclinic 
loop_ 
_symmetry_equiv_pos_as_xyz 
  x,y,z 
_cell_length_a                    66.50455507 
_cell_length_b                    66.33466214997807 
_cell_length_c                    33.66268153413435 
_cell_angle_alpha                 90.11679762428759 
_cell_angle_beta                  89.96434113505984 
_cell_angle_gamma                 90.11825179884622 
loop_ 
_atom_site_label 
_atom_site_type_symbol 
_atom_site_fract_x 
_atom_site_fract_y 
_atom_site_fract_z 
_atom_site_charge 
O1          O  0.63499529  0.83057606  0.15945329    -0.77700
C2          C  0.62332243  0.88138515  0.07343978     0.83400
O3          O  0.67634145  0.88438947  0.19687196    -0.78800
O4          O  0.61732917  0.92744438  0.17877058    -0.80300
O5          O  0.57870421  0.86868794  0.20210167    -0.80100
O6          O  0.61251013  0.83128816  0.20848722    -0.78700
Zn7        Zn  0.63954596  0.85998613  0.14537195     1.55700
O8          O  0.58057164  0.89389235  0.15839162    -0.80100
Cd9        Cd  0.60795744  0.86196340  0.21611083     1.59700
Cd10       Cd  0.64745023  0.89032165  0.21748794     1.59600
O11         O  0.61233808  0.86874251  0.27522962    -0.80100
O12         O  0.62669386  0.87780187  0.18258640    -1.90600
Cd13       Cd  0.61142913  0.89911098  0.15342754     1.59900
O14         O  0.64373651  0.88076806  0.27568264    -0.80000
O15         O  0.61844116  0.89720764  0.09290243    -0.78700
C16         C  0.68185464  0.87493277  0.16569890     0.83900
C17         C  0.62389359  0.82158230  0.18476500     0.83500
O18         O  0.62927053  0.86536277  0.09054576    -0.77600
C19         C  0.57040576  0.88147313  0.17925894     0.84300
O20         O  0.66934257  0.86562067  0.14365108    -0.77700
C21         C  0.62799076  0.87463139  0.29368484     0.84500
C22         C  0.63040449  0.93330589  0.20415465     0.84800
O23         O  0.64318979  0.92126401  0.21933493    -0.80100
O24         O  0.63783007  0.83160552  0.65275188    -0.77700
C25         C  0.62489391  0.88217378  0.57282191     0.83400
O26         O  0.67821893  0.88633621  0.70069424    -0.78800
O27         O  0.61686427  0.92705831  0.67354568    -0.80300
O28         O  0.58106703  0.86654447  0.70982063    -0.80100
O29         O  0.61620860  0.83042140  0.70329341    -0.78700
Zn30       Zn  0.64302130  0.86150283  0.64483069     1.55700
O31         O  0.58071342  0.89198168  0.66659663    -0.80100
Cd32       Cd  0.61156240  0.86045421  0.71719284     1.59700
Cd33       Cd  0.64861575  0.89313101  0.71589749     1.59600
O34         O  0.61853881  0.86515632  0.77644534    -0.80100
O35         O  0.62853614  0.87807329  0.68256710    -1.90600
Cd36       Cd  0.61072467  0.89770845  0.65415046     1.59900
O37         O  0.64321852  0.88807318  0.77557983    -0.80000
O38         O  0.61434200  0.89470368  0.59269236    -0.78700
C39         C  0.68438849  0.87657041  0.67043775     0.83900
C40         C  0.62685564  0.82169055  0.67690485     0.83500
O41         O  0.63580884  0.86896849  0.58946412    -0.77600
C42         C  0.57159597  0.87940161  0.68886186     0.84300
O43         O  0.67243040  0.86702453  0.64776857    -0.77700
C44         C  0.63086809  0.87682099  0.79421887     0.84500
C45         C  0.63117753  0.93457741  0.69411117     0.84800
O46         O  0.64505187  0.92379977  0.70904943    -0.80100
O47         O  0.86491555  0.83193140  0.09615660    -0.77700
C48         C  0.87728073  0.88476981  0.17484289     0.83400
O49         O  0.82320322  0.88554845  0.05253049    -0.78800
O50         O  0.88561344  0.92702776  0.06695331    -0.80300
O51         O  0.92036191  0.86752452  0.03948501    -0.80100
O52         O  0.88600254  0.83077912  0.04477273    -0.78700
Zn53       Zn  0.85994706  0.86168331  0.10514443     1.55700
O54         O  0.92044804  0.89191769  0.08531962    -0.80100
Cd55       Cd  0.89017119  0.86083855  0.03104789     1.59700
Cd56       Cd  0.85221299  0.89185366  0.03253676     1.59600
O57         O  0.88277692  0.86476387  0.97176724    -0.80100
O58         O  0.87302988  0.87815375  0.06564058    -1.90600
Cd59       Cd  0.89016975  0.89889493  0.09280307     1.59900
O60         O  0.85561904  0.88452124  0.97302727    -0.80000
O61         O  0.88399366  0.89932907  0.15387474    -0.78700
C62         C  0.81765130  0.87602978  0.08356121     0.83900
C63         C  0.87555905  0.82204352  0.07141226     0.83500
O64         O  0.86966673  0.86902286  0.15931254    -0.77600
C65         C  0.92968547  0.87968082  0.06242016     0.84300
O66         O  0.83013998  0.86690243  0.10576111    -0.77700
C67         C  0.86879521  0.87437110  0.95415593     0.84500
C68         C  0.87129647  0.93373935  0.04554988     0.84800
O69         O  0.85684380  0.92259759  0.03378190    -0.80100
O70         O  0.86633016  0.83045128  0.59288940    -0.77700
C71         C  0.87766343  0.88222595  0.67536048     0.83400
O72         O  0.82419619  0.88412631  0.55339285    -0.78800
O73         O  0.88527026  0.92655881  0.56944656    -0.80300
O74         O  0.92068072  0.86680137  0.54145168    -0.80100
O75         O  0.88645542  0.83013574  0.54008123    -0.78700
Zn76       Zn  0.86140038  0.85993702  0.60422937     1.55700
O77         O  0.92020743  0.89099847  0.58781226    -0.80100
Cd78       Cd  0.89076741  0.86063939  0.52980830     1.59700
Cd79       Cd  0.85275730  0.89150300  0.53304231     1.59600
O80         O  0.88402447  0.86627693  0.47074349    -0.80100
O81         O  0.87360813  0.87737583  0.56534141    -1.90600
Cd82       Cd  0.88997345  0.89805663  0.59410748     1.59900
O83         O  0.85646645  0.88548562  0.47291758    -0.80000
O84         O  0.88322526  0.89750605  0.65505467    -0.78700
C85         C  0.81904178  0.87424338  0.58426146     0.83900
C86         C  0.87643101  0.82094541  0.56676672     0.83500
O87         O  0.87134088  0.86613184  0.65898612    -0.77600
C88         C  0.92966557  0.87862970  0.56557580     0.84300
O89         O  0.83173916  0.86496103  0.60571572    -0.77700
C90         C  0.87000670  0.87605441  0.45357907     0.84500
C91         C  0.87075617  0.93354654  0.54886371     0.84800
O92         O  0.85637964  0.92245772  0.53659719    -0.80100
O93         O  0.86484859  0.16858604  0.40615169    -0.77700
C94         C  0.87770565  0.11707329  0.32299766     0.83400
O95         O  0.82237834  0.11780344  0.44440382    -0.78800
O96         O  0.88004841  0.07289058  0.42926837    -0.80300
O97         O  0.92000861  0.13148725  0.45204652    -0.80100
O98         O  0.88621202  0.16860442  0.45709375    -0.78700
Zn99       Zn  0.86051243  0.13932386  0.39288837     1.55700
O100        O  0.91809663  0.10474338  0.41187546    -0.80100
Cd101      Cd  0.89069652  0.13810222  0.46582219     1.59700
Cd102      Cd  0.85065540  0.11073630  0.46708736     1.59600
O103        O  0.88593939  0.13160578  0.52493117    -0.80100
O104        O  0.87213080  0.12215052  0.43228593    -1.90600
Cd105      Cd  0.88737738  0.10046256  0.40451748     1.59900
O106        O  0.85413983  0.12068656  0.52561703    -0.80000
O107        O  0.88192483  0.10145476  0.34343903    -0.78700
C108        C  0.81773244  0.12632205  0.41169950     0.83900
C109        C  0.87531612  0.17790312  0.43202423     0.83500
O110        O  0.87177147  0.13337845  0.33909738    -0.77600
C111        C  0.92827223  0.11786443  0.43099023     0.84300
O112        O  0.83087846  0.13424604  0.38912412    -0.77700
C113        C  0.87012018  0.12631740  0.54354131     0.84500
C114        C  0.86659461  0.06726133  0.45391291     0.84800
O115        O  0.85391240  0.07949589  0.46911046    -0.80100
O116        O  0.86284823  0.16944693  0.90739192    -0.77700
C117        C  0.87623787  0.11973965  0.82289749     0.83400
O118        O  0.82389547  0.11186632  0.94878284    -0.78800
O119        O  0.88633070  0.07362981  0.92213642    -0.80300
O120        O  0.92056652  0.13398531  0.95818914    -0.80100
O121        O  0.88500455  0.16999323  0.95696293    -0.78700
Zn122      Zn  0.85841220  0.13950397  0.89654205     1.55700
O123        O  0.92078315  0.10946331  0.91271613    -0.80100
Cd124      Cd  0.89021020  0.13973416  0.96769086     1.59700
Cd125      Cd  0.85354793  0.10672136  0.96582469     1.59600
O126        O  0.88351535  0.13429326  0.02667236    -0.80100
O127        O  0.87315961  0.12241620  0.93275005    -1.90600
Cd128      Cd  0.89083864  0.10316997  0.90261005     1.59900
O129        O  0.85785013  0.11248469  0.02561540    -0.80000
O130        O  0.88620085  0.10634302  0.84160588    -0.78700
C131        C  0.81741651  0.12213152  0.91952519     0.83900
C132        C  0.87379277  0.17908577  0.93211343     0.83500
O133        O  0.86610477  0.13322908  0.84074290    -0.77600
C134        C  0.92993554  0.12173143  0.93555424     0.84300
O135        O  0.82901903  0.13290854  0.89828332    -0.77700
C136        C  0.87058498  0.12327874  0.04431952     0.84500
C137        C  0.87286492  0.06584853  0.94439689     0.84800
O138        O  0.85901343  0.07629992  0.96039580    -0.80100
O139        O  0.63570838  0.17063882  0.34221533    -0.77700
C140        C  0.62410905  0.11982204  0.42565473     0.83400
O141        O  0.67642805  0.11433668  0.29989248    -0.78800
O142        O  0.61342960  0.07428178  0.32529665    -0.80300
O143        O  0.57960438  0.13591019  0.29060251    -0.80100
O144        O  0.61593747  0.17054256  0.28889910    -0.78700
Zn145      Zn  0.64089509  0.14079068  0.35242482     1.55700
O146        O  0.57903898  0.11123089  0.33556010    -0.80100
Cd147      Cd  0.61010464  0.14023161  0.27984978     1.59700
Cd148      Cd  0.64686725  0.10715435  0.28391432     1.59600
O149        O  0.61656375  0.13348702  0.22117447    -0.80100
O150        O  0.62683346  0.12315042  0.31572668    -1.90600
Cd151      Cd  0.60889023  0.10396043  0.34520105     1.59900
O152        O  0.64224618  0.11181778  0.22364321    -0.80000
O153        O  0.61382670  0.10680476  0.40632984    -0.78700
C154        C  0.68252022  0.12578071  0.32794385     0.83900
C155        C  0.62597649  0.17996234  0.31530348     0.83500
O156        O  0.63416578  0.13359202  0.40843016    -0.77600
C157        C  0.57006439  0.12401763  0.31364210     0.84300
O158        O  0.67042659  0.13609315  0.34893604    -0.77700
C159        C  0.62950521  0.12221219  0.20419715     0.84500
C160        C  0.62772938  0.06613239  0.30564055     0.84800
O161        O  0.64230533  0.07640393  0.29158602    -0.80100
O162        O  0.63553318  0.16961681  0.84265052    -0.77700
C163        C  0.62263851  0.11739437  0.92502406     0.83400
O164        O  0.67700199  0.11592817  0.80686414    -0.78800
O165        O  0.61782852  0.07354101  0.81725653    -0.80300
O166        O  0.58007036  0.13327213  0.79679871    -0.80100
O167        O  0.61515605  0.16973515  0.79013963    -0.78700
Zn168      Zn  0.63946591  0.14010261  0.85567317     1.55700
O169        O  0.58144195  0.10710307  0.83838739    -0.80100
Cd170      Cd  0.60969341  0.13910750  0.78205389     1.59700
Cd171      Cd  0.64890085  0.11066843  0.78221824     1.59600
O172        O  0.61482521  0.13161171  0.72316773    -0.80100
O173        O  0.62764702  0.12291510  0.81617788    -1.90600
Cd174      Cd  0.61204400  0.10134210  0.84360804     1.59900
O175        O  0.64662641  0.12077120  0.72384744    -0.80000
O176        O  0.61873935  0.10172248  0.90430200    -0.78700
C177        C  0.68183056  0.12478228  0.83916325     0.83900
C178        C  0.62566677  0.17902960  0.81606664     0.83500
O179        O  0.62789201  0.13400864  0.90919289    -0.77600
C180        C  0.57152674  0.12029424  0.81910640     0.84300
O181        O  0.66900630  0.13415094  0.86033307    -0.77700
C182        C  0.63078434  0.12606567  0.70520913     0.84500
C183        C  0.63127921  0.06771967  0.79273041     0.84800
O184        O  0.64449955  0.07970611  0.77869656    -0.80100
O185        O  0.13419842  0.86735410  0.15562938    -0.77700
C186        C  0.12706600  0.81973192  0.06757195     0.83400
O187        O  0.17830504  0.88373889  0.04655344    -0.78800
O188        O  0.11867789  0.86260912  0.96874690    -0.80300
O189        O  0.08096970  0.89037654  0.07777361    -0.80100
O190        O  0.11424336  0.89422837  0.15098804    -0.78700
Zn191      Zn  0.14231714  0.85959671  0.10087596     1.55700
O192        O  0.08111173  0.86466071  0.03497744    -0.80100
Cd193      Cd  0.11087320  0.89614442  0.08953115     1.59700
Cd194      Cd  0.14904714  0.89040100  0.02887107     1.59600
O195        O  0.11700382  0.92504672  0.06853142    -0.80100
O196        O  0.12854442  0.87601091  0.06214320    -1.90600
Cd197      Cd  0.11154682  0.85834530  0.02777116     1.59900
O198        O  0.14521984  0.92120977  0.03326349    -0.80000
O199        O  0.11638727  0.82839171  0.04125131    -0.78700
C200        C  0.18403649  0.87433556  0.07751565     0.83900
C201        C  0.12393500  0.88135749  0.17150894     0.83500
O202        O  0.13764845  0.82970736  0.09231814    -0.77600
C203        C  0.07177462  0.87771249  0.05584333     0.84300
O204        O  0.17176793  0.86510794  0.09998910    -0.77700
C205        C  0.13127710  0.93221523  0.04744369     0.84500
C206        C  0.13166021  0.87341029  0.95080098     0.84800
O207        O  0.14445934  0.88427643  0.96920805    -0.80100
O208        O  0.13055927  0.86436289  0.65507472    -0.77700
C209        C  0.12615501  0.82072159  0.55998283     0.83400
O210        O  0.17736033  0.88268064  0.54596853    -0.78800
O211        O  0.11227720  0.86820265  0.46975592    -0.80300
O212        O  0.08166696  0.89298258  0.58591483    -0.80100
O213        O  0.11881816  0.89580013  0.65269318    -0.78700
Zn214      Zn  0.14067468  0.85929590  0.59978036     1.55700
O215        O  0.07988026  0.86641319  0.54513202    -0.80100
Cd216      Cd  0.11260947  0.89794173  0.59223255     1.59700
Cd217      Cd  0.14818168  0.88897172  0.52631392     1.59600
O218        O  0.12010165  0.92653388  0.57091404    -0.80100
O219        O  0.12772782  0.87671325  0.56226772    -1.90600
Cd220      Cd  0.10908032  0.86059550  0.52897123     1.59900
O221        O  0.14357996  0.91985759  0.52512512    -0.80000
O222        O  0.11474668  0.83004211  0.53577610    -0.78700
C223        C  0.18280656  0.87376176  0.57777318     0.83900
C224        C  0.12409676  0.88021078  0.67217067     0.83500
O225        O  0.13672020  0.83002927  0.58570446    -0.77600
C226        C  0.07154294  0.87970988  0.56690869     0.84300
O227        O  0.17023796  0.86511467  0.60062911    -0.77700
C228        C  0.13223398  0.93218584  0.54367119     0.84500
C229        C  0.12751978  0.87453327  0.45050241     0.84800
O230        O  0.14364746  0.88018026  0.46778273    -0.80100
O231        O  0.37093228  0.86768024  0.09282533    -0.77700
C232        C  0.37511189  0.82268089  0.18453497     0.83400
O233        O  0.32332658  0.88631742  0.19759120    -0.78800
O234        O  0.38364555  0.86693698  0.27924769    -0.80300
O235        O  0.41899300  0.89411382  0.16384462    -0.80100
O236        O  0.38192772  0.89939965  0.09664640    -0.78700
Zn237      Zn  0.36041389  0.86175812  0.14719881     1.55700
O238        O  0.41996362  0.86974272  0.20960626    -0.80100
Cd239      Cd  0.38861956  0.90017902  0.15740708     1.59700
Cd240      Cd  0.35187675  0.89267213  0.21933169     1.59600
O241        O  0.38346514  0.92857176  0.18212414    -0.80100
O242        O  0.37269159  0.87914268  0.18599560    -1.90600
Cd243      Cd  0.39030382  0.86240140  0.22015648     1.59900
O244        O  0.35575692  0.92354807  0.21825656    -0.80000
O245        O  0.38623819  0.83197208  0.20931908    -0.78700
C246        C  0.31828938  0.87701365  0.16589272     0.83900
C247        C  0.37682202  0.88391324  0.07639686     0.83500
O248        O  0.36431362  0.83210194  0.15944762    -0.77600
C249        C  0.42869290  0.88208600  0.18623361     0.84300
O250        O  0.33100264  0.86768074  0.14448037    -0.77700
C251        C  0.36945953  0.93506407  0.20466606     0.84500
C252        C  0.36938610  0.87591773  0.29726060     0.84800
O253        O  0.35553521  0.88535400  0.27888312    -0.80100
O254        O  0.37020854  0.86466794  0.59246175    -0.77700
C255        C  0.37349361  0.82062040  0.68719349     0.83400
O256        O  0.32257698  0.88403976  0.69694093    -0.78800
O257        O  0.38173846  0.86657305  0.78063686    -0.80300
O258        O  0.42014880  0.89022578  0.66750956    -0.80100
O259        O  0.38444182  0.89508762  0.59638124    -0.78700
Zn260      Zn  0.35989136  0.85936471  0.64733202     1.55700
O261        O  0.41964803  0.86588029  0.71324522    -0.80100
Cd262      Cd  0.38992990  0.89679818  0.65737912     1.59700
Cd263      Cd  0.35137713  0.89189138  0.71670713     1.59600
O264        O  0.38435131  0.92590187  0.67785618    -0.80100
O265        O  0.37245766  0.87698701  0.68583561    -1.90600
Cd266      Cd  0.38919525  0.86034277  0.72229404     1.59900
O267        O  0.35501190  0.92273428  0.70962210    -0.80000
O268        O  0.38402794  0.82993539  0.71297730    -0.78700
C269        C  0.31749084  0.87399219  0.66611644     0.83900
C270        C  0.37782077  0.88019314  0.57616304     0.83500
O271        O  0.36364650  0.82995470  0.66056374    -0.77600
C272        C  0.42919895  0.87792295  0.69047565     0.84300
O273        O  0.33032370  0.86474420  0.64486254    -0.77700
C274        C  0.36946621  0.93348749  0.69652350     0.84500
C275        C  0.36816154  0.87718737  0.79729378     0.84800
O276        O  0.35519901  0.88716571  0.77750815    -0.80100
O277        O  0.36610763  0.13534969  0.40839062    -0.77700
C278        C  0.37139947  0.18160184  0.31537021     0.83400
O279        O  0.32199955  0.11628318  0.29974983    -0.78800
O280        O  0.38222941  0.13704411  0.22079350    -0.80300
O281        O  0.41924854  0.11243119  0.33269525    -0.80100
O282        O  0.38541430  0.10793211  0.40456841    -0.78700
Zn283      Zn  0.35761054  0.14198516  0.35293883     1.55700
O284        O  0.41865645  0.13825174  0.29032428    -0.80100
Cd285      Cd  0.38939117  0.10550861  0.34312837     1.59700
Cd286      Cd  0.35140789  0.11009643  0.28168327     1.59600
O287        O  0.38407245  0.07621760  0.32232215    -0.80100
O288        O  0.37153560  0.12511761  0.31487098    -1.90600
Cd289      Cd  0.38830768  0.14260633  0.27984699     1.59900
O290        O  0.35594223  0.07934748  0.28657324    -0.80000
O291        O  0.38224067  0.17255634  0.28982128    -0.78700
C292        C  0.31609885  0.12580862  0.33058166     0.83900
C293        C  0.37605267  0.12126056  0.42475063     0.83500
O294        O  0.36133363  0.17198608  0.34150585    -0.77600
C295        C  0.42819556  0.12573898  0.31189774     0.84300
O296        O  0.32823255  0.13550630  0.35268264    -0.77700
C297        C  0.37000022  0.06864858  0.30115231     0.84500
C298        C  0.36892677  0.12653352  0.20304130     0.84800
O299        O  0.35583483  0.11615589  0.22175069    -0.80100
O300        O  0.37280046  0.13503123  0.90695013    -0.77700
C301        C  0.37588267  0.17746672  0.81064194     0.83400
O302        O  0.32397072  0.11619654  0.80310349    -0.78800
O303        O  0.38874863  0.12806671  0.72334019    -0.80300
O304        O  0.41939336  0.10597587  0.84277760    -0.80100
O305        O  0.38002500  0.10222108  0.90508701    -0.78700
Zn306      Zn  0.36159583  0.13949064  0.85286934     1.55700
O307        O  0.42162512  0.13143256  0.79964069    -0.80100
Cd308      Cd  0.38850513  0.10051261  0.84541746     1.59700
Cd309      Cd  0.35252716  0.10931787  0.78142542     1.59600
O310        O  0.38283861  0.07247108  0.81978955    -0.80100
O311        O  0.37367965  0.12160226  0.81547749    -1.90600
Cd312      Cd  0.39248223  0.13699936  0.78168585     1.59900
O313        O  0.35621426  0.07825822  0.78088288    -0.80000
O314        O  0.38689703  0.16785282  0.78603457    -0.78700
C315        C  0.31909440  0.12508756  0.83535320     0.83900
C316        C  0.37661496  0.11847930  0.92433358     0.83500
O317        O  0.36568789  0.16841497  0.83723179    -0.77600
C318        C  0.42971855  0.11886048  0.82333497     0.84300
O319        O  0.33202072  0.13378680  0.85735712    -0.77700
C320        C  0.36938884  0.06643265  0.79541754     0.84500
C321        C  0.37297463  0.12257429  0.70468714     0.84800
O322        O  0.35666308  0.11793230  0.72255253    -0.80100
O323        O  0.12772116  0.13414073  0.34321210    -0.77700
C324        C  0.12271290  0.17959853  0.43531170     0.83400
O325        O  0.17569231  0.11745761  0.44890777    -0.78800
O326        O  0.11153403  0.13307900  0.52820338    -0.80300
O327        O  0.08029097  0.10543468  0.41498605    -0.80100
O328        O  0.11812203  0.10197401  0.34866028    -0.78700
Zn329      Zn  0.13834552  0.14076912  0.39750295     1.55700
O330        O  0.07825655  0.13266332  0.45391564    -0.80100
Cd331      Cd  0.11139719  0.10113007  0.40916668     1.59700
Cd332      Cd  0.14702217  0.11237350  0.47267654     1.59600
O333        O  0.11907207  0.07339865  0.43417848    -0.80100
O334        O  0.12616642  0.12347852  0.43646160    -1.90600
Cd335      Cd  0.10731420  0.13958290  0.46892868     1.59900
O336        O  0.14186983  0.08158854  0.48033160    -0.80000
O337        O  0.11171276  0.17020651  0.46019604    -0.78700
C338        C  0.18091155  0.12656234  0.41707985     0.83900
C339        C  0.12241926  0.11742518  0.32772652     0.83500
O340        O  0.13354509  0.17028413  0.41000255    -0.77600
C341        C  0.07003423  0.11885825  0.43317357     0.84300
O342        O  0.16818808  0.13560401  0.39520732    -0.77700
C343        C  0.13071205  0.06865200  0.46283462     0.84500
C344        C  0.12763838  0.12905350  0.54699275     0.84800
O345        O  0.14399120  0.12452784  0.52928417    -0.80100
O346        O  0.13445118  0.13213024  0.84365796    -0.77700
C347        C  0.12645827  0.17759300  0.93597687     0.83400
O348        O  0.17836152  0.11374756  0.95268930    -0.78800
O349        O  0.11616569  0.13238758  0.02988522    -0.80300
O350        O  0.08147144  0.10567137  0.91659221    -0.80100
O351        O  0.11600201  0.10402823  0.84500144    -0.78700
Zn352      Zn  0.14239594  0.13863095  0.89937048     1.55700
O353        O  0.08075805  0.13140756  0.95935045    -0.80100
Cd354      Cd  0.11185098  0.10083325  0.90647754     1.59700
Cd355      Cd  0.14895719  0.10730581  0.97064883     1.59600
O356        O  0.11845420  0.07186816  0.92707482    -0.80100
O357        O  0.12856585  0.12116488  0.93627054    -1.90600
Cd358      Cd  0.11065145  0.13783263  0.97052963     1.59900
O359        O  0.14518086  0.07655958  0.96635598    -0.80000
O360        O  0.11532719  0.16819056  0.96057575    -0.78700
C361        C  0.18420805  0.12373900  0.92244382     0.83900
C362        C  0.12497233  0.11806992  0.82597856     0.83500
O363        O  0.13747820  0.16830216  0.91094200    -0.77600
C364        C  0.07185708  0.11834591  0.93779702     0.84300
O365        O  0.17193908  0.13337438  0.90069424    -0.77700
C366        C  0.13213880  0.06514045  0.95011644     0.84500
C367        C  0.12981751  0.12284181  0.04852114     0.84800
O368        O  0.14392629  0.11350452  0.03057236    -0.80100
O369        O  0.86825328  0.36429780  0.34382330    -0.77700
C370        C  0.87421916  0.32012222  0.43757615     0.83400
O371        O  0.82271377  0.38483645  0.45070037    -0.78800
O372        O  0.88358480  0.36547311  0.53104693    -0.80300
O373        O  0.91892046  0.39071326  0.41470430    -0.80100
O374        O  0.88254291  0.39472250  0.34612022    -0.78700
Zn375      Zn  0.85880247  0.35889944  0.39950059     1.55700
O376        O  0.91977395  0.36630937  0.46031033    -0.80100
Cd377      Cd  0.88865331  0.39676063  0.40690954     1.59700
Cd378      Cd  0.85188694  0.39116919  0.47017289     1.59600
O379        O  0.88373435  0.42584968  0.42841077    -0.80100
O380        O  0.87215977  0.37656169  0.43689488    -1.90600
Cd381      Cd  0.88985188  0.35999287  0.47175811     1.59900
O382        O  0.85625933  0.42199724  0.46578995    -0.80000
O383        O  0.88552292  0.32956954  0.46181646    -0.78700
C384        C  0.81692786  0.37488641  0.42024862     0.83900
C385        C  0.87570345  0.37967319  0.32660131     0.83500
O386        O  0.86311636  0.32934905  0.41269711    -0.77600
C387        C  0.92858096  0.37855895  0.43688608     0.84300
O388        O  0.82917169  0.36489180  0.39884926    -0.77700
C389        C  0.86993357  0.43304404  0.45061530     0.84500
C390        C  0.86994528  0.37544999  0.54900358     0.84800
O391        O  0.85633480  0.38514514  0.53037577    -0.80100
O392        O  0.87266377  0.36812438  0.84229807    -0.77700
C393        C  0.87316212  0.32184049  0.93238799     0.83400
O394        O  0.82262529  0.38574780  0.94433583    -0.78800
O395        O  0.88173891  0.36636057  0.03000487    -0.80300
O396        O  0.91907373  0.39225396  0.91839784    -0.80100
O397        O  0.88416970  0.39954509  0.84885093    -0.78700
Zn398      Zn  0.86037675  0.36175923  0.89511896     1.55700
O399        O  0.91919084  0.36637445  0.96081031    -0.80100
Cd400      Cd  0.88913484  0.39931480  0.91019763     1.59700
Cd401      Cd  0.85085798  0.39203572  0.96780757     1.59600
O402        O  0.88389756  0.42745180  0.93559158    -0.80100
O403        O  0.87217727  0.37827876  0.93606061    -1.90600
Cd404      Cd  0.88884252  0.36085366  0.97105512     1.59900
O405        O  0.85450143  0.42294802  0.96633695    -0.80000
O406        O  0.88335782  0.33062208  0.95942874    -0.78700
C407        C  0.81801960  0.37744495  0.91130929     0.83900
C408        C  0.87946690  0.38437259  0.82736657     0.83500
O409        O  0.86361010  0.33178718  0.90609600    -0.77600
C410        C  0.92837091  0.37909700  0.93888632     0.84300
O411        O  0.83100422  0.36850608  0.88979921    -0.77700
C412        C  0.86901589  0.43419392  0.95545910     0.84500
C413        C  0.86752146  0.37592373  0.04708038     0.84800
O414        O  0.85396549  0.38533842  0.02780563    -0.80100
O415        O  0.87193001  0.63527897  0.16369683    -0.77700
C416        C  0.87565928  0.67972389  0.07118619     0.83400
O417        O  0.82364912  0.61627856  0.05917063    -0.78800
O418        O  0.88292019  0.63537809  0.97505363    -0.80300
O419        O  0.92019228  0.60864603  0.08712524    -0.80100
O420        O  0.88536851  0.60458117  0.15964930    -0.78700
Zn421      Zn  0.86097861  0.64075608  0.10926768     1.55700
O422        O  0.92023440  0.63332223  0.04201645    -0.80100
Cd423      Cd  0.89002186  0.60289594  0.09805098     1.59700
Cd424      Cd  0.85217133  0.60951660  0.03763151     1.59600
O425        O  0.88396366  0.57420355  0.07567812    -0.80100
O426        O  0.87326082  0.62343735  0.06997099    -1.90600
Cd427      Cd  0.89024003  0.64016740  0.03398501     1.59900
O428        O  0.85604500  0.57863690  0.03992429    -0.80000
O429        O  0.88621668  0.67045670  0.04542960    -0.78700
C430        C  0.81854537  0.62572102  0.09065197     0.83900
C431        C  0.87944418  0.61973621  0.17999113     0.83500
O432        O  0.86515059  0.67033327  0.09686491    -0.77600
C433        C  0.92944360  0.62078254  0.06410200     0.84300
O434        O  0.83130872  0.63494586  0.11228377    -0.77700
C435        C  0.86983145  0.56737078  0.05378822     0.84500
C436        C  0.86876187  0.62571130  0.95805074     0.84800
O437        O  0.85538548  0.61610469  0.97757258    -0.80100
O438        O  0.87042916  0.63347517  0.66324247    -0.77700
C439        C  0.87466486  0.67858699  0.57331192     0.83400
O440        O  0.82190139  0.61614021  0.55852998    -0.78800
O441        O  0.88184660  0.63485793  0.47634061    -0.80300
O442        O  0.91760994  0.60712988  0.59053458    -0.80100
O443        O  0.88173769  0.60192714  0.65914503    -0.78700
Zn444      Zn  0.85946111  0.63950472  0.60950098     1.55700
O445        O  0.91856818  0.63207836  0.54601752    -0.80100
Cd446      Cd  0.88730259  0.60096832  0.59780725     1.59700
Cd447      Cd  0.85023979  0.60877805  0.53674726     1.59600
O448        O  0.88176751  0.57265886  0.57262467    -0.80100
O449        O  0.87130634  0.62215708  0.56994590    -1.90600
Cd450      Cd  0.88881834  0.63904748  0.53556082     1.59900
O451        O  0.85374537  0.57766283  0.53749048    -0.80000
O452        O  0.88509645  0.66935282  0.54736010    -0.78700
C453        C  0.81699658  0.62549348  0.59025768     0.83900
C454        C  0.87699210  0.61750332  0.67944866     0.83500
O455        O  0.86403881  0.66913442  0.59867268    -0.77600
C456        C  0.92730334  0.61958189  0.56893990     0.84300
O457        O  0.82987378  0.63425207  0.61231012    -0.77700
C458        C  0.86763398  0.56616247  0.55032258     0.84500
C459        C  0.86753820  0.62581799  0.45847421     0.84800
O460        O  0.85381936  0.61620565  0.47705978    -0.80100
O461        O  0.62829505  0.63493201  0.09125412    -0.77700
C462        C  0.62477339  0.67906138  0.18714875     0.83400
O463        O  0.67700400  0.61883601  0.19862348    -0.78800
O464        O  0.61344446  0.63134433  0.27833879    -0.80300
O465        O  0.58098818  0.60660454  0.16265554    -0.80100
O466        O  0.61784137  0.60303694  0.09487178    -0.78700
Zn467      Zn  0.63928932  0.64058303  0.14596215     1.55700
O468        O  0.57952585  0.63244860  0.20518779    -0.80100
Cd469      Cd  0.61177710  0.60191166  0.15586633     1.59700
Cd470      Cd  0.64858227  0.61116395  0.21885781     1.59600
O471        O  0.61880752  0.57408992  0.17997948    -0.80100
O472        O  0.62723633  0.62321213  0.18469327    -1.90600
Cd473      Cd  0.60892323  0.63892502  0.21942829     1.59900
O474        O  0.64600120  0.57999731  0.21742742    -0.80000
O475        O  0.61393804  0.66965172  0.21233080    -0.78700
C476        C  0.68200197  0.62732071  0.16615307     0.83900
C477        C  0.62231319  0.61869875  0.07470657     0.83500
O478        O  0.63492065  0.66979973  0.16065939    -0.77600
C479        C  0.57101828  0.61938249  0.18303770     0.84300
O480        O  0.66909054  0.63529752  0.14312947    -0.77700
C481        C  0.63288243  0.56806976  0.20277029     0.84500
C482        C  0.62894947  0.62491364  0.29651110     0.84800
O483        O  0.64471918  0.61916144  0.27814201    -0.80100
O484        O  0.63133522  0.62983038  0.58899618    -0.77700
C485        C  0.62281146  0.67925165  0.67610833     0.83400
O486        O  0.67547681  0.61593234  0.69640648    -0.78800
O487        O  0.61675238  0.63568385  0.77794894    -0.80300
O488        O  0.57864929  0.60848787  0.66767807    -0.80100
O489        O  0.61250356  0.60220309  0.59576160    -0.78700
Zn490      Zn  0.63867422  0.63942088  0.64325084     1.55700
O491        O  0.57894952  0.63372900  0.71165011    -0.80100
Cd492      Cd  0.60837609  0.60233207  0.65703874     1.59700
Cd493      Cd  0.64670987  0.60880332  0.71573198     1.59600
O494        O  0.61379525  0.57403472  0.68066433    -0.80100
O495        O  0.62587076  0.62298192  0.68332582    -1.90600
Cd496      Cd  0.60926439  0.64042760  0.71872873     1.59900
O497        O  0.64318236  0.57798691  0.71174428    -0.80000
O498        O  0.61343574  0.67053619  0.70436553    -0.78700
C499        C  0.68086012  0.62605786  0.66606381     0.83900
C500        C  0.62197873  0.61485456  0.57426538     0.83500
O501        O  0.63269356  0.66930616  0.65018337    -0.77600
C502        C  0.56957864  0.62090430  0.69025250     0.84300
O503        O  0.66831194  0.63538038  0.64443839    -0.77700
C504        C  0.62858012  0.56700542  0.70027094     0.84500
C505        C  0.62997398  0.62488555  0.79520271     0.84800
O506        O  0.64280885  0.61451210  0.77586966    -0.80100
O507        O  0.62710117  0.36621345  0.40385601    -0.77700
C508        C  0.62798003  0.32250513  0.30795284     0.83400
O509        O  0.67719552  0.38511848  0.30101104    -0.78800
O510        O  0.61533963  0.37112077  0.21631960    -0.80300
O511        O  0.58096533  0.39173733  0.33264265    -0.80100
O512        O  0.61694226  0.39811827  0.39954807    -0.78700
Zn513      Zn  0.63959100  0.36149804  0.35036345     1.55700
O514        O  0.58071379  0.36636427  0.28885093    -0.80100
Cd515      Cd  0.61108768  0.39885624  0.33901890     1.59700
Cd516      Cd  0.64889468  0.39200323  0.27883052     1.59600
O517        O  0.61644800  0.42734321  0.31607585    -0.80100
O518        O  0.62767854  0.37844396  0.31080540    -1.90600
Cd519      Cd  0.61067474  0.36203004  0.27469684     1.59900
O520        O  0.64495103  0.42297492  0.28191230    -0.80000
O521        O  0.61762700  0.33148819  0.28139474    -0.78700
C522        C  0.68197966  0.37663170  0.33363601     0.83900
C523        C  0.62098104  0.38247160  0.41990246     0.83500
O524        O  0.63683526  0.33217295  0.33564108    -0.77600
C525        C  0.57163927  0.37858548  0.31199817     0.84300
O526        O  0.66901455  0.36810980  0.35584510    -0.77700
C527        C  0.63095147  0.43421524  0.29526557     0.84500
C528        C  0.63068685  0.37876796  0.19925228     0.84800
O529        O  0.64598493  0.38496692  0.21869780    -0.80100
O530        O  0.63568513  0.36900577  0.90266582    -0.77700
C531        C  0.62673923  0.32156021  0.81191069     0.83400
O532        O  0.67773904  0.38633916  0.79031101    -0.78800
O533        O  0.61632042  0.36666399  0.71606401    -0.80300
O534        O  0.58055746  0.39128571  0.82828819    -0.80100
O535        O  0.61517676  0.39552115  0.89933382    -0.78700
Zn536      Zn  0.64259770  0.36119235  0.84669051     1.55700
O537        O  0.58056022  0.36523709  0.78632069    -0.80100
Cd538      Cd  0.61055223  0.39764532  0.83818219     1.59700
Cd539      Cd  0.64802138  0.39296484  0.77576016     1.59600
O540        O  0.61585044  0.42682476  0.81781607    -0.80100
O541        O  0.62816104  0.37793290  0.80947715    -1.90600
Cd542      Cd  0.61086038  0.36058031  0.77513355     1.59900
O543        O  0.64420893  0.42354263  0.78283359    -0.80000
O544        O  0.61635722  0.33054676  0.78560948    -0.78700
C545        C  0.68403796  0.37644469  0.82021196     0.83900
C546        C  0.62546436  0.38286596  0.91929775     0.83500
O547        O  0.63720305  0.33124276  0.83740562    -0.77600
C548        C  0.57130122  0.37805633  0.80778867     0.84300
O549        O  0.67215211  0.36671983  0.84278162    -0.77700
C550        C  0.63018786  0.43431162  0.79737802     0.84500
C551        C  0.62888981  0.37789751  0.69798999     0.84800
O552        O  0.64218251  0.38823578  0.71618482    -0.80100
O553        O  0.13694084  0.66765489  0.10068139    -0.77700
C554        C  0.12568387  0.61579931  0.18034854     0.83400
O555        O  0.17754254  0.61280613  0.05176116    -0.78800
O556        O  0.11574446  0.57229838  0.07779876    -0.80300
O557        O  0.08059496  0.63242988  0.04464684    -0.80100
O558        O  0.11538310  0.66870369  0.05008261    -0.78700
Zn559      Zn  0.14251674  0.63778520  0.10812194     1.55700
O560        O  0.08049197  0.60759662  0.08924653    -0.80100
Cd561      Cd  0.11083585  0.63873678  0.03633870     1.59700
Cd562      Cd  0.14787918  0.60660193  0.03571030     1.59600
O563        O  0.11741888  0.63454250  0.97693692    -0.80100
O564        O  0.12805821  0.62122891  0.07029495    -1.90600
Cd565      Cd  0.11050940  0.60138468  0.09916340     1.59900
O566        O  0.14301471  0.61281583  0.97609317    -0.80000
O567        O  0.11515539  0.60323053  0.16047857    -0.78700
C568        C  0.18391000  0.62296026  0.08139440     0.83900
C569        C  0.12603222  0.67749309  0.07637466     0.83500
O570        O  0.13589678  0.62962482  0.16366832    -0.77600
C571        C  0.07128827  0.61994157  0.06676862     0.84300
O572        O  0.17207340  0.63274748  0.10393393    -0.77700
C573        C  0.13017905  0.62379698  0.95826376     0.84500
C574        C  0.12953216  0.56502517  0.05561302     0.84800
O575        O  0.14328408  0.57594092  0.04036562    -0.80100
O576        O  0.13430987  0.66931730  0.59656092    -0.77700
C577        C  0.11931279  0.61809388  0.68014815     0.83400
O578        O  0.17505002  0.61497982  0.56143806    -0.78800
O579        O  0.11399807  0.57373268  0.57512000    -0.80300
O580        O  0.07817117  0.63372229  0.54720579    -0.80100
O581        O  0.11405699  0.66933900  0.54379765    -0.78700
Zn582      Zn  0.13771056  0.63987043  0.61046385     1.55700
O583        O  0.07832342  0.60825619  0.59041255    -0.80100
Cd584      Cd  0.10814229  0.63898789  0.53569306     1.59700
Cd585      Cd  0.14657433  0.60942980  0.53814836     1.59600
O586        O  0.11344604  0.63131969  0.47722373    -0.80100
O587        O  0.12545023  0.62272363  0.57109565    -1.90600
Cd588      Cd  0.10856726  0.60211617  0.59846800     1.59900
O589        O  0.14414403  0.61772777  0.47851040    -0.80000
O590        O  0.11405599  0.60291670  0.65924596    -0.78700
C591        C  0.18011807  0.62431828  0.59307791     0.83900
C592        C  0.12471386  0.67862565  0.56945723     0.83500
O593        O  0.12619327  0.63420007  0.66464868    -0.77600
C594        C  0.06900685  0.62108315  0.56919267     0.84300
O595        O  0.16735840  0.63386031  0.61414318    -0.77700
C596        C  0.12880836  0.62414992  0.45959530     0.84500
C597        C  0.12799779  0.56713202  0.55276944     0.84800
O598        O  0.14171016  0.57855534  0.53871828    -0.80100
O599        O  0.13614448  0.33162087  0.40873378    -0.77700
C600        C  0.12239259  0.38297452  0.32659104     0.83400
O601        O  0.17643988  0.38633582  0.44989235    -0.78800
O602        O  0.11415981  0.42693249  0.43310945    -0.80300
O603        O  0.07958970  0.36690096  0.45991826    -0.80100
O604        O  0.11411264  0.33097134  0.45852089    -0.78700
Zn605      Zn  0.14018374  0.36135228  0.39737103     1.55700
O606        O  0.07970023  0.39164561  0.41506161    -0.80100
Cd607      Cd  0.10955822  0.36102560  0.47039852     1.59700
Cd608      Cd  0.14729013  0.39238134  0.46966605     1.59600
O609        O  0.11603924  0.36542885  0.52979112    -0.80100
O610        O  0.12690786  0.37819439  0.43610654    -1.90600
Cd611      Cd  0.10993944  0.39854184  0.40801988     1.59900
O612        O  0.14329761  0.38518217  0.52919744    -0.80000
O613        O  0.11615225  0.39793494  0.34708902    -0.78700
C614        C  0.18222330  0.37676131  0.41899264     0.83900
C615        C  0.12524424  0.32197669  0.43341725     0.83500
O616        O  0.12988561  0.36733616  0.34261955    -0.77600
C617        C  0.07040339  0.37905584  0.43700694     0.84300
O618        O  0.16989855  0.36733264  0.39671521    -0.77700
C619        C  0.12991901  0.37508993  0.54771648     0.84500
C620        C  0.12803945  0.43396104  0.45534001     0.84800
O621        O  0.14241542  0.42311336  0.46815476    -0.80100
O622        O  0.13566930  0.32986656  0.91030942    -0.77700
C623        C  0.12208422  0.38062179  0.82680493     0.83400
O624        O  0.17617071  0.38355739  0.95001592    -0.78800
O625        O  0.11504516  0.42605019  0.93117110    -0.80300
O626        O  0.07933875  0.36583142  0.95927591    -0.80100
O627        O  0.11396667  0.32916721  0.96056711    -0.78700
Zn628      Zn  0.13935449  0.35948746  0.89786158     1.55700
O629        O  0.07961444  0.39081275  0.91481829    -0.80100
Cd630      Cd  0.10920076  0.35966489  0.97061267     1.59700
Cd631      Cd  0.14721946  0.39102118  0.96892021     1.59600
O632        O  0.11538032  0.36535155  0.02967346    -0.80100
O633        O  0.12652240  0.37678300  0.93617111    -1.90600
Cd634      Cd  0.10997685  0.39732702  0.90758333     1.59900
O635        O  0.14256509  0.38523794  0.02888828    -0.80000
O636        O  0.11639584  0.39599807  0.84675088    -0.78700
C637        C  0.18156865  0.37440326  0.91838098     0.83900
C638        C  0.12515155  0.32015259  0.93549135     0.83500
O639        O  0.12873598  0.36478232  0.84341155    -0.77600
C640        C  0.07023699  0.37816441  0.93654912     0.84300
O641        O  0.16896858  0.36557651  0.89576780    -0.77700
C642        C  0.12897414  0.37547182  0.04750571     0.84500
C643        C  0.12951303  0.43307419  0.95193588     0.84800
O644        O  0.14371295  0.42196090  0.96468298    -0.80100
O645        O  0.36394632  0.33360543  0.34559342    -0.77700
C646        C  0.37958828  0.38381492  0.43025007     0.83400
O647        O  0.32389495  0.38715872  0.30672412    -0.78800
O648        O  0.38539415  0.42878812  0.32526640    -0.80300
O649        O  0.42077952  0.36896186  0.29448191    -0.80100
O650        O  0.38540088  0.33277700  0.29474246    -0.78700
Zn651      Zn  0.36053460  0.36314857  0.35897935     1.55700
O652        O  0.42075287  0.39357259  0.33987507    -0.80100
Cd653      Cd  0.39071655  0.36299926  0.28449388     1.59700
Cd654      Cd  0.35284862  0.39353470  0.28651513     1.59600
O655        O  0.38434037  0.36813463  0.22534253    -0.80100
O656        O  0.37357030  0.37988037  0.31990814    -1.90600
Cd657      Cd  0.39060210  0.40018849  0.34850743     1.59900
O658        O  0.35607513  0.38618663  0.22670417    -0.80000
O659        O  0.38568448  0.39892632  0.41004773    -0.78700
C660        C  0.31837487  0.37824916  0.33848247     0.83900
C661        C  0.37416377  0.32388536  0.31987890     0.83500
O662        O  0.37156057  0.36849501  0.41373515    -0.77600
C663        C  0.43000097  0.38113475  0.31748897     0.84300
O664        O  0.33086946  0.36943774  0.36120581    -0.77700
C665        C  0.36990824  0.37698136  0.20771404     0.84500
C666        C  0.37137514  0.43555350  0.30313756     0.84800
O667        O  0.35754384  0.42430401  0.28901008    -0.80100
O668        O  0.36525383  0.32939005  0.84814460    -0.77700
C669        C  0.37816819  0.38253236  0.92912800     0.83400
O670        O  0.32333445  0.38295975  0.80893584    -0.78800
O671        O  0.38424026  0.42620366  0.82208242    -0.80300
O672        O  0.42049509  0.36519947  0.79948428    -0.80100
O673        O  0.38538857  0.32935563  0.79535790    -0.78700
Zn674      Zn  0.36085259  0.35936043  0.85996153     1.55700
O675        O  0.42009314  0.39190276  0.83993989    -0.80100
Cd676      Cd  0.39063737  0.35972246  0.78677566     1.59700
Cd677      Cd  0.35210192  0.39052158  0.78783169     1.59600
O678        O  0.38555206  0.36603896  0.72781068    -0.80100
O679        O  0.37305324  0.37677301  0.82069474    -1.90600
Cd680      Cd  0.38965350  0.39800665  0.84724331     1.59900
O681        O  0.35764367  0.38485091  0.72752132    -0.80000
O682        O  0.38358856  0.39756720  0.90802030    -0.78700
C683        C  0.31823584  0.37377316  0.84079928     0.83900
C684        C  0.37513647  0.31998959  0.82139385     0.83500
O685        O  0.37152981  0.36622436  0.91398001    -0.77600
C686        C  0.42954517  0.37841937  0.82038714     0.84300
O687        O  0.33107782  0.36486340  0.86263439    -0.77700
C688        C  0.37201410  0.37588103  0.70948542     0.84500
C689        C  0.36948443  0.43294590  0.80190090     0.84800
O690        O  0.35498225  0.42167180  0.79090926    -0.80100
O691        O  0.36544539  0.67098778  0.16488815    -0.77700
C692        C  0.37882929  0.62041433  0.08010523     0.83400
O693        O  0.32379878  0.61743096  0.19836403    -0.78800
O694        O  0.38357487  0.57550253  0.18498769    -0.80300
O695        O  0.42072574  0.63380453  0.21243651    -0.80100
O696        O  0.38617749  0.67083989  0.21694327    -0.78700
Zn697      Zn  0.36148940  0.64175133  0.15034377     1.55700
O698        O  0.41946338  0.60891173  0.16775347    -0.80100
Cd699      Cd  0.39105642  0.64014183  0.22502050     1.59700
Cd700      Cd  0.35192132  0.61134796  0.22212475     1.59600
O701        O  0.38566640  0.63211737  0.28344639    -0.80100
O702        O  0.37324198  0.62439431  0.18947618    -1.90600
Cd703      Cd  0.38906826  0.60356157  0.16082641     1.59900
O704        O  0.35446143  0.61959006  0.28164755    -0.80000
O705        O  0.38276835  0.60463550  0.10025844    -0.78700
C706        C  0.31899532  0.62630518  0.16613838     0.83900
C707        C  0.37562784  0.68024387  0.19132005     0.83500
O708        O  0.37350839  0.63684485  0.09654040    -0.77600
C709        C  0.42931665  0.62117683  0.18946355     0.84300
O710        O  0.33188592  0.63554606  0.14486471    -0.77700
C711        C  0.37004138  0.62529244  0.30079304     0.84500
C712        C  0.36990898  0.56898209  0.20820353     0.84800
O713        O  0.35620686  0.58036099  0.22229934    -0.80100
O714        O  0.36156788  0.66826867  0.66053779    -0.77700
C715        C  0.37562919  0.61690437  0.57961200     0.83400
O716        O  0.32188160  0.61337460  0.70562349    -0.78800
O717        O  0.38255743  0.57266717  0.68049992    -0.80300
O718        O  0.41865510  0.63290452  0.71613500    -0.80100
O719        O  0.38388483  0.66955520  0.70985055    -0.78700
Zn720      Zn  0.35723458  0.63824699  0.65097308     1.55700
O721        O  0.41890206  0.60713144  0.67341430    -0.80100
Cd722      Cd  0.38849912  0.63961615  0.72344914     1.59700
Cd723      Cd  0.35130651  0.60758957  0.72372900     1.59600
O724        O  0.38165124  0.63595827  0.78283049    -0.80100
O725        O  0.37139388  0.62189449  0.68940012    -1.90600
Cd726      Cd  0.38895266  0.60179621  0.66121653     1.59900
O727        O  0.35579125  0.61444142  0.78348512    -0.80000
O728        O  0.38548435  0.60405213  0.59986452    -0.78700
C729        C  0.31582227  0.62234363  0.67439277     0.83900
C730        C  0.37256410  0.67823944  0.68467140     0.83500
O731        O  0.36536628  0.63082060  0.59583093    -0.77600
C732        C  0.42800302  0.61975212  0.69560191     0.84300
O733        O  0.32778755  0.63188304  0.65171749    -0.77700
C734        C  0.36861460  0.62551756  0.80143089     0.84500
C735        C  0.36868455  0.56561727  0.70271971     0.84800
O736        O  0.35553790  0.57683753  0.71911556    -0.80100
C737        C  0.38079319  0.63067258  0.97649001     0.21200
C738        C  0.38332154  0.64253623  0.94238529    -0.38700
C739        C  0.37667867  0.63383071  0.90673144     0.20200
C740        C  0.36783504  0.61492918  0.90530631     0.22800
C741        C  0.36560874  0.60293893  0.93934745    -0.39200
C742        C  0.37261279  0.61147583  0.97490426     0.21600
N743        N  0.38493070  0.63589424  0.01414914    -0.32500
C744        C  0.37962750  0.61981287  0.03662007    -0.10000
C745        C  0.37206948  0.60418707  0.01323224    -0.28800
N746        N  0.36285544  0.61004767  0.86781721    -0.45400
C747        C  0.36897372  0.62575499  0.84510673    -0.04700
C748        C  0.37764843  0.64089927  0.86831963    -0.22100
H749        H  0.38994067  0.65744740  0.94354249     0.19700
H750        H  0.35888681  0.58807561  0.93823410     0.18500
H751        H  0.36578493  0.59000781  0.02320124     0.14800
H752        H  0.38424148  0.65492985  0.85829605     0.14700
H753        H  0.39042843  0.64977414  0.02413544     0.32800
H754        H  0.35654241  0.59648475  0.85805052     0.35600
C755        C  0.38156299  0.61784244  0.40324295     0.21200
C756        C  0.39374809  0.61373048  0.43633995    -0.38700
C757        C  0.38397563  0.61407670  0.47329448     0.20200
C758        C  0.36369952  0.61846916  0.47676471     0.22800
C759        C  0.35145078  0.62207836  0.44367570    -0.39200
C760        C  0.36114838  0.62148008  0.40678806     0.21600
N761        N  0.38731414  0.61915078  0.36509382    -0.32500
C762        C  0.37039348  0.62332030  0.34422387    -0.10000
C763        C  0.35371742  0.62472354  0.36912979    -0.28800
N764        N  0.35829435  0.61953216  0.51503798    -0.45400
C765        C  0.37511677  0.61553681  0.53620013    -0.04700
C766        C  0.39146896  0.61179833  0.51131829    -0.22100
H767        H  0.40971102  0.61089968  0.43358155     0.19700
H768        H  0.33561218  0.62551966  0.44653150     0.18500
H769        H  0.33834460  0.62799921  0.36086014     0.14800
H770        H  0.40687835  0.60891758  0.51989072     0.14700
H771        H  0.40180690  0.61707909  0.35383086     0.32800
H772        H  0.34408457  0.62314495  0.52619270     0.35600
C773        C  0.35912877  0.48229242  0.76470539     0.21200
C774        C  0.34724812  0.49852221  0.75204764    -0.38700
C775        C  0.35771713  0.51479340  0.73523283     0.20200
C776        C  0.37840162  0.51474050  0.73053215     0.22800
C777        C  0.39030558  0.49860528  0.74365437    -0.39200
C778        C  0.37987215  0.48251377  0.76130043     0.21600
N779        N  0.35278768  0.46491328  0.78102130    -0.32500
C780        C  0.36963056  0.45411593  0.78871241    -0.10000
C781        C  0.38682956  0.46465762  0.77705773    -0.28800
N782        N  0.38479071  0.53237253  0.71535140    -0.45400
C783        C  0.36811092  0.54390791  0.71138505    -0.04700
C784        C  0.35093317  0.53341236  0.72323182    -0.22100
H785        H  0.33107437  0.49862186  0.75564813     0.19700
H786        H  0.40652229  0.49871720  0.74092280     0.18500
H787        H  0.40224895  0.45949869  0.77810346     0.14800
H788        H  0.33569061  0.53904749  0.72486125     0.14700
H789        H  0.33791027  0.46049785  0.78595974     0.32800
H790        H  0.39968821  0.53679748  0.71066838     0.35600
C791        C  0.38162952  0.37192254  0.53360298     0.21200
C792        C  0.38082262  0.35915123  0.56672114    -0.38700
C793        C  0.37856941  0.36871145  0.60358440     0.20200
C794        C  0.37707057  0.38944381  0.60724304     0.22800
C795        C  0.37847684  0.40229774  0.57412004    -0.39200
C796        C  0.38083668  0.39270521  0.53709292     0.21600
N797        N  0.38197576  0.36636630  0.49526710    -0.32500
C798        C  0.38156731  0.38365282  0.47389841    -0.10000
C799        C  0.38113295  0.40048242  0.49893818    -0.28800
N800        N  0.37382180  0.39464955  0.64539117    -0.45400
C801        C  0.37350450  0.37710032  0.66601533    -0.04700
C802        C  0.37667437  0.36063718  0.64107085    -0.22100
H803        H  0.38131679  0.34290339  0.56386836     0.19700
H804        H  0.37721107  0.41850552  0.57684246     0.18500
H805        H  0.37991139  0.41615040  0.49038866     0.14800
H806        H  0.37730618  0.34488226  0.64927414     0.14700
H807        H  0.38185239  0.35163169  0.48424008     0.32800
H808        H  0.37230577  0.40921524  0.65684486     0.35600
C809        C  0.37930049  0.37171164  0.10381197     0.21200
C810        C  0.38949080  0.36498076  0.06983435    -0.38700
C811        C  0.38393013  0.37422221  0.03412770     0.20200
C812        C  0.36941775  0.38913565  0.03236130     0.22800
C813        C  0.35897221  0.39563143  0.06629915    -0.39200
C814        C  0.36448309  0.38631419  0.10206311     0.21600
N815        N  0.38252918  0.36599577  0.14149254    -0.32500
C816        C  0.36968607  0.37701770  0.16399638    -0.10000
C817        C  0.35800073  0.38970562  0.14041838    -0.28800
N818        N  0.36658822  0.39514224  0.99466376    -0.45400
C819        C  0.37921170  0.38376260  0.97241542    -0.04700
C820        C  0.39020753  0.37051171  0.99587447    -0.22100
H821        H  0.40094141  0.35342775  0.07112174     0.19700
H822        H  0.34748254  0.40714268  0.06498716     0.18500
H823        H  0.34698512  0.40063125  0.15020625     0.14800
H824        H  0.40069205  0.35908554  0.98601590     0.14700
H825        H  0.39325400  0.35567909  0.15139997     0.32800
H826        H  0.35592621  0.40543998  0.98443036     0.35600
C827        C  0.38112779  0.48560116  0.26959128     0.21200
C828        C  0.39255749  0.50158683  0.25406764    -0.38700
C829        C  0.38153949  0.51839904  0.24124230     0.20200
C830        C  0.36079165  0.51932017  0.24430855     0.22800
C831        C  0.34937655  0.50321912  0.25905769    -0.39200
C832        C  0.36033700  0.48633040  0.27126827     0.21600
N833        N  0.38786564  0.46774630  0.28294219    -0.32500
C834        C  0.37117975  0.45697474  0.29234866    -0.10000
C835        C  0.35376471  0.46803781  0.28538967    -0.28800
N836        N  0.35394286  0.53728512  0.23204393    -0.45400
C837        C  0.37040469  0.54777804  0.22046641    -0.04700
C838        C  0.38789921  0.53648139  0.22546936    -0.22100
H839        H  0.40879115  0.50097991  0.25209995     0.19700
H840        H  0.33313718  0.50378787  0.26084773     0.18500
H841        H  0.33835231  0.46313291  0.28920019     0.14800
H842        H  0.40323549  0.54121388  0.21997263     0.14700
H843        H  0.40277346  0.46282793  0.28377270     0.32800
H844        H  0.33903377  0.54221243  0.23203005     0.35600
C845        C  0.26469292  0.37578763  0.85185947     0.21200
C846        C  0.24462991  0.37761448  0.83959141    -0.38700
C847        C  0.23010705  0.37577675  0.86959841     0.20200
C848        C  0.23513447  0.37278962  0.90906046     0.22800
C849        C  0.25521909  0.37060960  0.92127715    -0.39200
C850        C  0.26975924  0.37206994  0.89105621     0.21600
N851        N  0.28124396  0.37700657  0.82898459    -0.32500
C852        C  0.29699696  0.37367408  0.85358071    -0.10000
C853        C  0.29042872  0.37049495  0.89255200    -0.28800
N854        N  0.21850126  0.37217333  0.93188057    -0.45400
C855        C  0.20283653  0.37438124  0.90651825    -0.04700
C856        C  0.20946287  0.37655477  0.86747183    -0.22100
H857        H  0.24061159  0.38022944  0.80888206     0.19700
H858        H  0.25922749  0.36795274  0.95198003     0.18500
H859        H  0.29957918  0.36767898  0.91853222     0.14800
H860        H  0.20036899  0.37871072  0.84116678     0.14700
H861        H  0.28178382  0.37972486  0.79845060     0.32800
H862        H  0.21780593  0.37006625  0.96259423     0.35600
C863        C  0.13141744  0.38616448  0.65134556     0.21200
C864        C  0.13292496  0.39849361  0.68518123    -0.38700
C865        C  0.12749432  0.38941576  0.72123933     0.20200
C866        C  0.12155384  0.36943105  0.72341116     0.22800
C867        C  0.11981300  0.35717795  0.68957746    -0.39200
C868        C  0.12473515  0.36640955  0.65344772     0.21600
N869        N  0.13500343  0.39141796  0.61347904    -0.32500
C870        C  0.13011380  0.37505776  0.59130824    -0.10000
C871        C  0.12362598  0.35915165  0.61512996    -0.28800
N872        N  0.11815706  0.36408996  0.76122695    -0.45400
C873        C  0.12160738  0.38085281  0.78327559    -0.04700
C874        C  0.12734655  0.39703671  0.75943676    -0.22100
H875        H  0.13780257  0.41404462  0.68349786     0.19700
H876        H  0.11481316  0.34166278  0.69123720     0.18500
H877        H  0.11843501  0.34443991  0.60561079     0.14800
H878        H  0.13182354  0.41197816  0.76895929     0.14700
H879        H  0.13961512  0.40553582  0.60317231     0.32800
H880        H  0.11411396  0.34980637  0.77155095     0.35600
C881        C  0.11912204  0.37221477  0.22319008     0.21200
C882        C  0.11627728  0.36004885  0.18955429    -0.38700
C883        C  0.12183954  0.36871064  0.15326596     0.20200
C884        C  0.12996923  0.38789634  0.15070423     0.22800
C885        C  0.13245561  0.40023540  0.18433895    -0.39200
C886        C  0.12654871  0.39168993  0.22066708     0.21600
N887        N  0.11602337  0.36703616  0.26119602    -0.32500
C888        C  0.12118274  0.38339357  0.28309259    -0.10000
C889        C  0.12766288  0.39918608  0.25893203    -0.28800
N890        N  0.13434211  0.39245643  0.11276636    -0.45400
C891        C  0.12855893  0.37620118  0.09108653    -0.04700
C892        C  0.12064873  0.36111578  0.11526692    -0.22100
H893        H  0.11031550  0.34488761  0.19153997     0.19700
H894        H  0.13867379  0.41529259  0.18240481     0.18500
H895        H  0.13354176  0.41366730  0.26824525     0.14800
H896        H  0.11465916  0.34664010  0.10617724     0.14700
H897        H  0.11118626  0.35303791  0.27174355     0.32800
H898        H  0.14023181  0.40602034  0.10211561     0.35600
C899        C  0.27058058  0.37917293  0.38683238     0.21200
C900        C  0.25715741  0.38108890  0.41885987    -0.38700
C901        C  0.23670128  0.37898571  0.40949168     0.20200
C902        C  0.23021216  0.37485685  0.37126305     0.22800
C903        C  0.24360914  0.37325139  0.33913627    -0.39200
C904        C  0.26402800  0.37579421  0.34835581     0.21600
N905        N  0.29073015  0.38041250  0.38800211    -0.32500
C906        C  0.29704493  0.37822014  0.34995025    -0.10000
C907        C  0.28083681  0.37542228  0.32423951    -0.28800
N908        N  0.21009381  0.37324079  0.37018086    -0.45400
C909        C  0.20364053  0.37671694  0.40779619    -0.04700
C910        C  0.21980302  0.38042745  0.43322640    -0.22100
H911        H  0.26226696  0.38408838  0.44881914     0.19700
H912        H  0.23849204  0.37034885  0.30914437     0.18500
H913        H  0.28133276  0.37299184  0.29245115     0.14800
H914        H  0.21925988  0.38365154  0.46473865     0.14700
H915        H  0.29967083  0.38279267  0.41309261     0.32800
H916        H  0.20123890  0.37033304  0.34518389     0.35600
C917        C  0.26243546  0.62388671  0.66384184     0.21200
C918        C  0.24249437  0.62821257  0.67449077    -0.38700
C919        C  0.22814788  0.62571760  0.64428612     0.20200
C920        C  0.23320573  0.61908196  0.60656010     0.22800
C921        C  0.25316124  0.61499910  0.59575972    -0.39200
C922        C  0.26754163  0.61786096  0.62572687     0.21600
N923        N  0.27893384  0.62561103  0.68675222    -0.32500
C924        C  0.29461864  0.62109040  0.66268594    -0.10000
C925        C  0.28814538  0.61620083  0.62447740    -0.28800
N926        N  0.21678781  0.61772467  0.58340342    -0.45400
C927        C  0.20119666  0.62380912  0.60639992    -0.04700
C928        C  0.20769898  0.62895695  0.64452912    -0.22100
H929        H  0.23847343  0.63336310  0.70396706     0.19700
H930        H  0.25722779  0.61021656  0.56606588     0.18500
H931        H  0.29733992  0.61219286  0.59912517     0.14800
H932        H  0.19863278  0.63414305  0.66921860     0.14700
H933        H  0.27957300  0.63027804  0.71637906     0.32800
H934        H  0.21623874  0.61308350  0.55375106     0.35600
C935        C  0.11784671  0.51646786  0.52285673     0.21200
C936        C  0.10601579  0.50003028  0.51044829    -0.38700
C937        C  0.11661380  0.48369987  0.49403651     0.20200
C938        C  0.13739005  0.48362609  0.49122946     0.22800
C939        C  0.14914498  0.50007788  0.50322723    -0.39200
C940        C  0.13856116  0.51652483  0.51870170     0.21600
N941        N  0.11146376  0.53420730  0.53757647    -0.32500
C942        C  0.12823179  0.54569088  0.54187996    -0.10000
C943        C  0.14539281  0.53516411  0.53051256    -0.28800
N944        N  0.14397157  0.46615693  0.47594279    -0.45400
C945        C  0.12730221  0.45509939  0.46820084    -0.04700
C946        C  0.10989242  0.46552458  0.47892147    -0.22100
H947        H  0.08978592  0.50006844  0.51287681     0.19700
H948        H  0.16534863  0.50017469  0.50019596     0.18500
H949        H  0.16072985  0.54064705  0.52983492     0.14800
H950        H  0.09452338  0.46017168  0.47748733     0.14700
H951        H  0.09658662  0.53858934  0.54247612     0.32800
H952        H  0.15891772  0.46189003  0.47148856     0.35600
C953        C  0.12991459  0.61225390  0.85471780     0.21200
C954        C  0.13196420  0.60015131  0.82066647    -0.38700
C955        C  0.12472533  0.60855371  0.78521340     0.20200
C956        C  0.11640506  0.62766488  0.78384496     0.22800
C957        C  0.11401252  0.63957150  0.81793647    -0.39200
C958        C  0.12098685  0.63107477  0.85336156     0.21600
N959        N  0.13535272  0.60770205  0.89208821    -0.32500
C960        C  0.12944551  0.62357907  0.91466688    -0.10000
C961        C  0.12047168  0.63845705  0.89155375    -0.28800
N962        N  0.11241672  0.63299430  0.74626181    -0.45400
C963        C  0.11801582  0.61711313  0.72352708    -0.04700
C964        C  0.12551766  0.60143509  0.74669721    -0.22100
H965        H  0.13889440  0.58541095  0.82162302     0.19700
H966        H  0.10742482  0.65446808  0.81687254     0.18500
H967        H  0.11399107  0.65254172  0.90153158     0.14800
H968        H  0.13210172  0.58744455  0.73647881     0.14700
H969        H  0.14185845  0.59428106  0.90188346     0.32800
H970        H  0.10701064  0.64689614  0.73647905     0.35600
C971        C  0.13776828  0.62096666  0.35511854     0.21200
C972        C  0.14886227  0.62172482  0.31973384    -0.38700
C973        C  0.13795593  0.61796550  0.28484775     0.20200
C974        C  0.11762923  0.61336373  0.28507705     0.22800
C975        C  0.10645634  0.61292728  0.32045520    -0.39200
C976        C  0.11729151  0.61710744  0.35531350     0.21600
N977        N  0.14461053  0.62404585  0.39223579    -0.32500
C978        C  0.12827440  0.62251894  0.41609085    -0.10000
C979        C  0.11096508  0.61831113  0.39417803    -0.28800
N980        N  0.11072236  0.61087931  0.24779071    -0.45400
C981        C  0.12670989  0.61442477  0.22381033    -0.04700
C982        C  0.14391697  0.61884662  0.24580444    -0.22100
H983        H  0.16474852  0.62530009  0.31932388     0.19700
H984        H  0.09046211  0.60987853  0.32077297     0.18500
H985        H  0.09587177  0.61600176  0.40535415     0.14800
H986        H  0.15867159  0.62277397  0.23459664     0.14700
H987        H  0.15939404  0.62714837  0.40078957     0.32800
H988        H  0.09590469  0.60802324  0.23913581     0.35600
C989        C  0.27209953  0.62466419  0.11440291     0.21200
C990        C  0.25904124  0.62417438  0.08151096    -0.38700
C991        C  0.23842435  0.62305081  0.09054859     0.20200
C992        C  0.23153667  0.62276405  0.12937594     0.22800
C993        C  0.24454752  0.62277167  0.16204549    -0.39200
C994        C  0.26504788  0.62361131  0.15304553     0.21600
N995        N  0.29227149  0.62613108  0.11411169    -0.32500
C996        C  0.29798305  0.62565595  0.15281116    -0.10000
C997        C  0.28144381  0.62396797  0.17792162    -0.28800
N998        N  0.21142049  0.62275163  0.13043619    -0.45400
C999        C  0.20528614  0.62270899  0.09211962    -0.04700
C1000       C  0.22166888  0.62268775  0.06614056    -0.22100
H1001       H  0.26450541  0.62482242  0.05124642     0.19700
H1002       H  0.23907672  0.62236626  0.19232539     0.18500
H1003       H  0.28142568  0.62334482  0.21004943     0.14800
H1004       H  0.22134758  0.62296198  0.03400390     0.14700
H1005       H  0.30159737  0.62708801  0.08919889     0.32800
H1006       H  0.20234746  0.62270599  0.15578958     0.35600
C1007       C  0.13929352  0.51554338  0.01925793     0.21200
C1008       C  0.15087294  0.50019710  0.00201120    -0.38700
C1009       C  0.14011402  0.48351609  0.98768217     0.20200
C1010       C  0.11935846  0.48232800  0.98974544     0.22800
C1011       C  0.10777777  0.49756535  0.00764468    -0.39200
C1012       C  0.11858677  0.51415892  0.02255295     0.21600
N1013       N  0.14587373  0.53340878  0.03285291    -0.32500
C1014       C  0.12930375  0.54348227  0.04524169    -0.10000
C1015       C  0.11198339  0.53187242  0.03977831    -0.28800
N1016       N  0.11281440  0.46473142  0.97448784    -0.45400
C1017       C  0.12956624  0.45448974  0.96349973    -0.04700
C1018       C  0.14686387  0.46574884  0.97122566    -0.22100
H1019       H  0.16708319  0.50119691  0.99982865     0.19700
H1020       H  0.09156114  0.49660854  0.00967064     0.18500
H1021       H  0.09656522  0.53637628  0.04492800     0.14800
H1022       H  0.16232858  0.46118829  0.96687899     0.14700
H1023       H  0.16065202  0.53877217  0.03219687     0.32800
H1024       H  0.09799273  0.45949726  0.97381837     0.35600
C1025       C  0.48205831  0.36881408  0.80932761     0.21200
C1026       C  0.49919786  0.35854819  0.79585960    -0.38700
C1027       C  0.51763548  0.36806253  0.80355441     0.20200
C1028       C  0.51885819  0.38634144  0.82333841     0.22800
C1029       C  0.50172270  0.39660004  0.83681459    -0.39200
C1030       C  0.48328494  0.38710947  0.82904990     0.21600
N1031       N  0.46279537  0.36325560  0.80457500    -0.32500
C1032       C  0.45165191  0.37811439  0.82130090    -0.10000
C1033       C  0.46389989  0.39322422  0.83712340    -0.28800
N1034       N  0.53808732  0.39220752  0.82705967    -0.45400
C1035       C  0.54921295  0.37761696  0.80941964    -0.04700
C1036       C  0.53699391  0.36229439  0.79429858    -0.22100
H1037       H  0.49822927  0.34429890  0.78024626     0.19700
H1038       H  0.50267676  0.41097194  0.85198623     0.18500
H1039       H  0.45924190  0.40704613  0.85154955     0.14800
H1040       H  0.54165338  0.34871390  0.77900473     0.14700
H1041       H  0.45754210  0.35030518  0.79020534     0.32800
H1042       H  0.54332316  0.40534146  0.84077802     0.35600
C1043       C  0.48246638  0.37315971  0.30232955     0.21200
C1044       C  0.49962055  0.36545093  0.28356475    -0.38700
C1045       C  0.51802883  0.37128196  0.30017835     0.20200
C1046       C  0.51928369  0.38388372  0.33293118     0.22800
C1047       C  0.50209450  0.39153927  0.35185294    -0.39200
C1048       C  0.48364537  0.38571245  0.33517053     0.21600
N1049       N  0.46325122  0.37001027  0.29191448    -0.32500
C1050       C  0.45207479  0.38066394  0.31821554    -0.10000
C1051       C  0.46424242  0.39068867  0.34567913    -0.28800
N1052       N  0.53858210  0.38781457  0.34187171    -0.45400
C1053       C  0.54962209  0.37762805  0.31456829    -0.04700
C1054       C  0.53734231  0.36701908  0.28828503    -0.22100
H1055       H  0.49870328  0.35580475  0.25765304     0.19700
H1056       H  0.50302252  0.40150019  0.37729682     0.18500
H1057       H  0.45952373  0.40024538  0.37004662     0.14800
H1058       H  0.54192689  0.35794214  0.26311679     0.14700
H1059       H  0.45806638  0.36122226  0.26824766     0.32800
H1060       H  0.54389724  0.39711112  0.36465372     0.35600
C1061       C  0.62380586  0.39204133  0.52370301     0.21200
C1062       C  0.63044187  0.40189694  0.55824292    -0.38700
C1063       C  0.62821312  0.39099758  0.59365107     0.20200
C1064       C  0.61962820  0.37196076  0.59457320     0.22800
C1065       C  0.61323347  0.36203884  0.56009312    -0.39200
C1066       C  0.61585702  0.37272786  0.52469248     0.21600
N1067       N  0.62544227  0.39855079  0.48606267    -0.32500
C1068       C  0.61896620  0.38303817  0.46314240    -0.10000
C1069       C  0.61281816  0.36672095  0.48609726    -0.28800
N1070       N  0.61900254  0.36484249  0.63178399    -0.45400
C1071       C  0.62755059  0.37928167  0.65468365    -0.04700
C1072       C  0.63355905  0.39583193  0.63205288    -0.22100
H1073       H  0.63722888  0.41673635  0.55749082     0.19700
H1074       H  0.60710362  0.34691319  0.56069450     0.18500
H1075       H  0.60763321  0.35213778  0.47581780     0.14800
H1076       H  0.64047794  0.40965573  0.64242860     0.14700
H1077       H  0.63174090  0.41213212  0.47645671     0.32800
H1078       H  0.61319774  0.35097808  0.64103879     0.35600
C1079       C  0.61993455  0.38607310  0.09620875     0.21200
C1080       C  0.60816903  0.39060168  0.06269949    -0.38700
C1081       C  0.61766000  0.38803823  0.02574543     0.20200
C1082       C  0.63724519  0.38117444  0.02261258     0.22800
C1083       C  0.64913919  0.37713634  0.05606423    -0.39200
C1084       C  0.63977215  0.37999901  0.09294552     0.21600
N1085       N  0.61418450  0.38634070  0.13450766    -0.32500
C1086       C  0.63056981  0.38072378  0.15572892    -0.10000
C1087       C  0.64689534  0.37685984  0.13090577    -0.28800
N1088       N  0.64239228  0.37866679  0.98438464    -0.45400
C1089       C  0.62613482  0.38426839  0.96286416    -0.04700
C1090       C  0.61041513  0.39040242  0.98754366    -0.22100
H1091       H  0.59267074  0.39539037  0.06519806     0.19700
H1092       H  0.66445434  0.37179233  0.05353252     0.18500
H1093       H  0.66173372  0.37178733  0.13942450     0.14800
H1094       H  0.59551318  0.39516666  0.97876701     0.14700
H1095       H  0.60000535  0.39011590  0.14559279     0.32800
H1096       H  0.65611617  0.37333890  0.97352969     0.35600
C1097       C  0.48062107  0.61140227  0.68346252     0.21200
C1098       C  0.49802042  0.60333722  0.66617182    -0.38700
C1099       C  0.51621832  0.61141220  0.67990580     0.20200
C1100       C  0.51704128  0.62630046  0.70876604     0.22800
C1101       C  0.49964153  0.63427770  0.72621403    -0.39200
C1102       C  0.48143050  0.62629400  0.71231485     0.21600
N1103       N  0.46148320  0.60690790  0.67437267    -0.32500
C1104       C  0.45004602  0.61913816  0.69739797    -0.10000
C1105       C  0.46193632  0.63135876  0.72163538    -0.28800
N1106       N  0.53615535  0.63169700  0.71608364    -0.45400
C1107       C  0.54754576  0.62013831  0.69170135    -0.04700
C1108       C  0.53566094  0.60728589  0.66872260    -0.22100
H1109       H  0.49742246  0.59186835  0.64327857     0.19700
H1110       H  0.50022703  0.64607112  0.74845325     0.18500
H1111       H  0.45698428  0.64271608  0.74257568     0.14800
H1112       H  0.54059315  0.59645324  0.64670263     0.14700
H1113       H  0.45652399  0.59649957  0.65317468     0.32800
H1114       H  0.54113203  0.64256469  0.73634951     0.35600
C1115       C  0.63898041  0.51762210  0.73571290     0.21200
C1116       C  0.65093543  0.50166796  0.74915679    -0.38700
C1117       C  0.64047703  0.48515908  0.76487647     0.20200
C1118       C  0.61970756  0.48469414  0.76769339     0.22800
C1119       C  0.60772291  0.50056798  0.75372243    -0.39200
C1120       C  0.61818273  0.51695268  0.73731611     0.21600
N1121       N  0.64532425  0.53523755  0.72065191    -0.32500
C1122       C  0.62844988  0.54575731  0.71209216    -0.10000
C1123       C  0.61120467  0.53481443  0.72175377    -0.28800
N1124       N  0.61343320  0.46696660  0.78256126    -0.45400
C1125       C  0.63032164  0.45595097  0.78835616    -0.04700
C1126       C  0.64746792  0.46682178  0.77780852    -0.22100
H1127       H  0.66717821  0.50200187  0.74716551     0.19700
H1128       H  0.59146953  0.50011613  0.75518708     0.18500
H1129       H  0.59573116  0.53973824  0.71977035     0.14800
H1130       H  0.66288529  0.46162062  0.77774637     0.14700
H1131       H  0.66020516  0.54002679  0.71733202     0.32800
H1132       H  0.59856562  0.46217019  0.78604588     0.35600
C1133       C  0.48162998  0.61264999  0.17243492     0.21200
C1134       C  0.49882520  0.60375784  0.15560467    -0.38700
C1135       C  0.51732601  0.61160988  0.16864269     0.20200
C1136       C  0.51844553  0.62710110  0.19619475     0.22800
C1137       C  0.50133670  0.63590477  0.21298571    -0.39200
C1138       C  0.48295365  0.62808601  0.20005549     0.21600
N1139       N  0.46228220  0.60809105  0.16507527    -0.32500
C1140       C  0.45135755  0.62078458  0.18819011    -0.10000
C1141       C  0.46372840  0.63341124  0.21047982    -0.28800
N1142       N  0.53760335  0.63182055  0.20412592    -0.45400
C1143       C  0.54892660  0.61923988  0.18171799    -0.04700
C1144       C  0.53684102  0.60638454  0.15899117    -0.22100
H1145       H  0.49787053  0.59164461  0.13409334     0.19700
H1146       H  0.50228357  0.64796604  0.23461576     0.18500
H1147       H  0.45924683  0.64499121  0.23136976     0.14800
H1148       H  0.54166342  0.59472179  0.13859367     0.14700
H1149       H  0.45685891  0.59711288  0.14551851     0.32800
H1150       H  0.54266527  0.64282396  0.22401641     0.35600
C1151       C  0.62258581  0.63085167  0.89967900     0.21200
C1152       C  0.61623843  0.64048990  0.93456033    -0.38700
C1153       C  0.61847410  0.62940805  0.96965986     0.20200
C1154       C  0.62605954  0.60998854  0.97009726     0.22800
C1155       C  0.63266198  0.60039554  0.93512609    -0.39200
C1156       C  0.63079223  0.61168643  0.89997305     0.21600
N1157       N  0.62178726  0.63818216  0.86254497    -0.32500
C1158       C  0.62979095  0.62373949  0.83889401    -0.10000
C1159       C  0.63572304  0.60700983  0.86116067    -0.28800
N1160       N  0.62721498  0.60304992  0.00763649    -0.45400
C1161       C  0.62077039  0.61839921  0.03109749    -0.04700
C1162       C  0.61514964  0.63501148  0.00845156    -0.22100
H1163       H  0.61026531  0.65565556  0.93445415     0.19700
H1164       H  0.63902534  0.58539142  0.93533484     0.18500
H1165       H  0.64201329  0.59302357  0.85021011     0.14800
H1166       H  0.61007324  0.64954250  0.01911274     0.14700
H1167       H  0.61592444  0.65206972  0.85374216     0.32800
H1168       H  0.63313536  0.58926100  0.01686874     0.35600
C1169       C  0.63469644  0.61545888  0.47200215     0.21200
C1170       C  0.64708088  0.61957470  0.43928675    -0.38700
C1171       C  0.63735155  0.62041106  0.40247455     0.20200
C1172       C  0.61679997  0.61766652  0.39868634     0.22800
C1173       C  0.60445231  0.61316128  0.43136862    -0.39200
C1174       C  0.61423474  0.61204009  0.46820028     0.21600
N1175       N  0.64004781  0.61565441  0.51034173    -0.32500
C1176       C  0.62296534  0.61222169  0.53116578    -0.10000
C1177       C  0.60653542  0.60954081  0.50600724    -0.28800
N1178       N  0.61115886  0.61973947  0.36063196    -0.45400
C1179       C  0.62828871  0.62339672  0.33999331    -0.04700
C1180       C  0.64496229  0.62392013  0.36503784    -0.22100
H1181       H  0.66305711  0.62230037  0.44239068     0.19700
H1182       H  0.58837499  0.61108306  0.42843369     0.18500
H1183       H  0.59091440  0.60774383  0.51434065     0.14800
H1184       H  0.66052096  0.62638497  0.35689781     0.14700
H1185       H  0.65428734  0.61890620  0.52181461     0.32800
H1186       H  0.59664479  0.61813144  0.34918977     0.35600
C1187       C  0.64201988  0.48409362  0.26233074     0.21200
C1188       C  0.65401398  0.49996563  0.24809958    -0.38700
C1189       C  0.64358162  0.51719210  0.23563401     0.20200
C1190       C  0.62279265  0.51826908  0.23645426     0.22800
C1191       C  0.61084812  0.50257388  0.25138987    -0.39200
C1192       C  0.62128543  0.48553973  0.26461016     0.21600
N1193       N  0.64817636  0.46582565  0.27434528    -0.32500
C1194       C  0.63126654  0.45569481  0.28481496    -0.10000
C1195       C  0.61420171  0.46756363  0.27957990    -0.28800
N1196       N  0.61646755  0.53615813  0.22285569    -0.45400
C1197       C  0.63332056  0.54676547  0.21423980    -0.04700
C1198       C  0.65057787  0.53549193  0.22186265    -0.22100
H1199       H  0.67024470  0.49897006  0.24683025     0.19700
H1200       H  0.59461378  0.50354662  0.25255593     0.18500
H1201       H  0.59866358  0.46321731  0.28398832     0.14800
H1202       H  0.66608051  0.54019051  0.21850069     0.14700
H1203       H  0.66291212  0.46040206  0.27452031     0.32800
H1204       H  0.60162278  0.54121291  0.22126576     0.35600
C1205       C  0.97998357  0.62741138  0.55692769     0.21200
C1206       C  0.99739688  0.63581335  0.54036468    -0.38700
C1207       C  0.01557053  0.62850616  0.55544371     0.20200
C1208       C  0.01637311  0.61392369  0.58477181     0.22800
C1209       C  0.99891960  0.60552210  0.60142696    -0.39200
C1210       C  0.98069801  0.61283690  0.58628884     0.21600
N1211       N  0.96091196  0.63167185  0.54726110    -0.32500
C1212       C  0.94935439  0.61968160  0.57047663    -0.10000
C1213       C  0.96112900  0.60773773  0.59534962    -0.28800
N1214       N  0.03553755  0.60942156  0.59360479    -0.45400
C1215       C  0.04694258  0.62127930  0.56975072    -0.04700
C1216       C  0.03502840  0.63338518  0.54556178    -0.22100
H1217       H  0.99683185  0.64713739  0.51728762     0.19700
H1218       H  0.99948665  0.59407243  0.62425969     0.18500
H1219       H  0.95605927  0.59676863  0.61692871     0.14800
H1220       H  0.03995105  0.64417918  0.52350996     0.14700
H1221       H  0.95606608  0.64200740  0.52595486     0.32800
H1222       H  0.04053801  0.59892197  0.61444524     0.35600
C1223       C  0.76370462  0.62707541  0.59986107     0.21200
C1224       C  0.74369122  0.62828998  0.58718830    -0.38700
C1225       C  0.72920888  0.62765337  0.61738614     0.20200
C1226       C  0.73422247  0.62555281  0.65710456     0.22800
C1227       C  0.75425646  0.62472924  0.66984336    -0.39200
C1228       C  0.76876312  0.62576282  0.63969496     0.21600
N1229       N  0.78024734  0.62699050  0.57697772    -0.32500
C1230       C  0.79590386  0.62600051  0.60253988    -0.10000
C1231       C  0.78939627  0.62535153  0.64188531    -0.28800
N1232       N  0.71762609  0.62460285  0.67979459    -0.45400
C1233       C  0.70202707  0.62654907  0.65430911    -0.04700
C1234       C  0.70861570  0.62852884  0.61519572    -0.22100
H1235       H  0.73969000  0.62956946  0.55613257     0.19700
H1236       H  0.75825079  0.62333067  0.70088030     0.18500
H1237       H  0.79854094  0.62428271  0.66838801     0.14800
H1238       H  0.69951870  0.62999740  0.58870037     0.14700
H1239       H  0.78088098  0.62775355  0.54601006     0.32800
H1240       H  0.71693789  0.62292246  0.71061266     0.35600
C1241       C  0.98207817  0.61285274  0.07758900     0.21200
C1242       C  0.99944147  0.60471078  0.09481051    -0.38700
C1243       C  0.01771941  0.61217550  0.08014642     0.20200
C1244       C  0.01863891  0.62663227  0.05058300     0.22800
C1245       C  0.00126893  0.63475785  0.03331326    -0.39200
C1246       C  0.98298404  0.62731540  0.04803258     0.21600
N1247       N  0.96290466  0.60851948  0.08679032    -0.32500
C1248       C  0.95152557  0.62037586  0.06303814    -0.10000
C1249       C  0.96350474  0.63227046  0.03836307    -0.28800
N1250       N  0.03782565  0.63129685  0.04207631    -0.45400
C1251       C  0.04918586  0.61969548  0.06636960    -0.04700
C1252       C  0.03718198  0.60757091  0.09054474    -0.22100
H1253       H  0.99876821  0.59348008  0.11805755     0.19700
H1254       H  0.00193984  0.64612271  0.01032036     0.18500
H1255       H  0.95861435  0.64320665  0.01661036     0.14800
H1256       H  0.04204936  0.59687094  0.11276852     0.14700
H1257       H  0.95788240  0.59831002  0.10821678     0.32800
H1258       H  0.04287250  0.64170001  0.02103125     0.35600
C1259       C  0.87582023  0.63171205  0.85362850     0.21200
C1260       C  0.88276949  0.64084741  0.81867299    -0.38700
C1261       C  0.88051673  0.62942254  0.78385758     0.20200
C1262       C  0.87227085  0.61023420  0.78382336     0.22800
C1263       C  0.86496225  0.60126414  0.81871997    -0.39200
C1264       C  0.86693550  0.61281587  0.85350232     0.21600
N1265       N  0.87695026  0.63908122  0.89077736    -0.32500
C1266       C  0.86847692  0.62488850  0.91441444    -0.10000
C1267       C  0.86187672  0.60837590  0.89222225    -0.28800
N1268       N  0.87138244  0.60276826  0.74664843    -0.45400
C1269       C  0.87870681  0.61752449  0.72289477    -0.04700
C1270       C  0.88455920  0.63433483  0.74501238    -0.22100
H1271       H  0.88936248  0.65578098  0.81855647     0.19700
H1272       H  0.85817880  0.58641967  0.81877606     0.18500
H1273       H  0.85528986  0.59453625  0.90322742     0.14800
H1274       H  0.89014465  0.64859004  0.73389694     0.14700
H1275       H  0.88348713  0.65270076  0.89963243     0.32800
H1276       H  0.86498695  0.58909372  0.73774205     0.35600
C1277       C  0.86870813  0.61418734  0.35511819     0.21200
C1278       C  0.86902791  0.60153405  0.32158650    -0.38700
C1279       C  0.87479478  0.61069990  0.28576618     0.20200
C1280       C  0.87949083  0.63100595  0.28354027     0.22800
C1281       C  0.87955695  0.64356144  0.31715881    -0.39200
C1282       C  0.87416188  0.63430976  0.35303901     0.21600
N1283       N  0.86430677  0.60901178  0.39272787    -0.32500
C1284       C  0.86749401  0.62581075  0.41484802    -0.10000
C1285       C  0.87363972  0.64191429  0.39116795    -0.28800
N1286       N  0.88284029  0.63645174  0.24572460    -0.45400
C1287       C  0.88049974  0.61949138  0.22364239    -0.04700
C1288       C  0.87572562  0.60302048  0.24760896    -0.22100
H1289       H  0.86498954  0.58574415  0.32323932     0.19700
H1290       H  0.88346258  0.65938586  0.31546836     0.18500
H1291       H  0.87779793  0.65693812  0.40076506     0.14800
H1292       H  0.87195895  0.58788428  0.23809096     0.14700
H1293       H  0.86050296  0.59466255  0.40306779     0.32800
H1294       H  0.88575730  0.65099603  0.23533757     0.35600
C1295       C  0.76507774  0.62512284  0.10021781     0.21200
C1296       C  0.74503152  0.62467390  0.08736860    -0.38700
C1297       C  0.73047887  0.62616556  0.11736978     0.20200
C1298       C  0.73547768  0.62753075  0.15722304     0.22800
C1299       C  0.75553470  0.62831166  0.17003795    -0.39200
C1300       C  0.77009711  0.62724550  0.13993662     0.21600
N1301       N  0.78168146  0.62400846  0.07755260    -0.32500
C1302       C  0.79735946  0.62585427  0.10296263    -0.10000
C1303       C  0.79075668  0.62793944  0.14210369    -0.28800
N1304       N  0.71884149  0.62808827  0.17989684    -0.45400
C1305       C  0.70320080  0.62748744  0.15415318    -0.04700
C1306       C  0.70983330  0.62636846  0.11493407    -0.22100
H1307       H  0.74105730  0.62332629  0.05629962     0.19700
H1308       H  0.75950656  0.62970195  0.20110212     0.18500
H1309       H  0.79986885  0.62956037  0.16855786     0.14800
H1310       H  0.70074462  0.62538086  0.08833275     0.14700
H1311       H  0.78231957  0.62244712  0.04669227     0.32800
H1312       H  0.71814721  0.62898134  0.21085331     0.35600
C1313       C  0.98115120  0.37042699  0.94852682     0.21200
C1314       C  0.99868354  0.36169695  0.96379342    -0.38700
C1315       C  0.01680050  0.36954662  0.94916499     0.20200
C1316       C  0.01746476  0.38488344  0.92135118     0.22800
C1317       C  0.99990946  0.39358924  0.90595977    -0.39200
C1318       C  0.98176374  0.38577663  0.92072679     0.21600
N1319       N  0.96208036  0.36596169  0.95838088    -0.32500
C1320       C  0.95045694  0.37862925  0.93683111    -0.10000
C1321       C  0.96218669  0.39116113  0.91288556    -0.28800
N1322       N  0.03659933  0.38990023  0.91294105    -0.45400
C1323       C  0.04813677  0.37766090  0.93567810    -0.04700
C1324       C  0.03631891  0.36474919  0.95855356    -0.22100
H1325       H  0.99825643  0.34982470  0.98578994     0.19700
H1326       H  0.00034220  0.40569753  0.88446777     0.18500
H1327       H  0.95707136  0.40277505  0.89276180     0.14800
H1328       H  0.04134758  0.35351232  0.97957411     0.14700
H1329       H  0.95728847  0.35512879  0.97880595     0.32800
H1330       H  0.04148696  0.40104923  0.89329089     0.35600
C1331       C  0.73105640  0.37915586  0.87010162     0.21200
C1332       C  0.74362496  0.38049841  0.90335303    -0.38700
C1333       C  0.76424923  0.38016045  0.89544314     0.20200
C1334       C  0.77180491  0.37836559  0.85727601     0.22800
C1335       C  0.75918202  0.37755685  0.82375124    -0.39200
C1336       C  0.73843659  0.37814380  0.83167594     0.21600
N1337       N  0.71095543  0.37840500  0.87021952    -0.32500
C1338       C  0.70529814  0.37726888  0.83168434    -0.10000
C1339       C  0.72199114  0.37726038  0.80647351    -0.28800
N1340       N  0.79196558  0.37712924  0.85812413    -0.45400
C1341       C  0.79718191  0.37839025  0.89703655    -0.04700
C1342       C  0.78032393  0.38052169  0.92117403    -0.22100
H1343       H  0.73774525  0.38137893  0.93329594     0.19700
H1344       H  0.76506030  0.37623674  0.79387106     0.18500
H1345       H  0.72208299  0.37627114  0.77437926     0.14800
H1346       H  0.77987162  0.38157723  0.95325240     0.14700
H1347       H  0.70156785  0.37883515  0.89510843     0.32800
H1348       H  0.80159095  0.37550340  0.83379417     0.35600
C1349       C  0.87909971  0.48375667  0.99165658     0.21200
C1350       C  0.89081961  0.49940000  0.00768910    -0.38700
C1351       C  0.88017086  0.51636124  0.02097846     0.20200
C1352       C  0.85946891  0.51777799  0.01777642     0.22800
C1353       C  0.84771356  0.50200141  0.00236548    -0.39200
C1354       C  0.85833457  0.48488840  0.98978997     0.21600
N1355       N  0.88558033  0.46591372  0.97773702    -0.32500
C1356       C  0.86880497  0.45545965  0.96770585    -0.10000
C1357       C  0.85150602  0.46675992  0.97489553    -0.28800
N1358       N  0.85307425  0.53588713  0.03041888    -0.45400
C1359       C  0.86977769  0.54596284  0.04234637    -0.04700
C1360       C  0.88696845  0.53422888  0.03717114    -0.22100
H1361       H  0.90703223  0.49843452  0.00966721     0.19700
H1362       H  0.83150123  0.50297288  0.00035582     0.18500
H1363       H  0.83603556  0.46216048  0.97055447     0.14800
H1364       H  0.90242275  0.53859250  0.04253842     0.14700
H1365       H  0.90042327  0.46081173  0.97675321     0.32800
H1366       H  0.83831296  0.54123957  0.03015109     0.35600
C1367       C  0.98136447  0.37037337  0.44675671     0.21200
C1368       C  0.99888066  0.36094265  0.46039485    -0.38700
C1369       C  0.01700251  0.36963006  0.44779236     0.20200
C1370       C  0.01765625  0.38640717  0.42341252     0.22800
C1371       C  0.00011807  0.39583702  0.40972422    -0.39200
C1372       C  0.98197061  0.38713406  0.42232489     0.21600
N1373       N  0.96229655  0.36516884  0.45493283    -0.32500
C1374       C  0.95066133  0.37868175  0.43550793    -0.10000
C1375       C  0.96237812  0.39260177  0.41475403    -0.28800
N1376       N  0.03677248  0.39184901  0.41607840    -0.45400
C1377       C  0.04832274  0.37846641  0.43609419    -0.04700
C1378       C  0.03653199  0.36436995  0.45615086    -0.22100
H1379       H  0.99843156  0.34788065  0.47959816     0.19700
H1380       H  0.00056719  0.40901218  0.39082637     0.18500
H1381       H  0.95724861  0.40512153  0.39687993     0.14800
H1382       H  0.04158214  0.35202354  0.47457622     0.14700
H1383       H  0.95749995  0.35318693  0.47269762     0.32800
H1384       H  0.04164555  0.40401451  0.39890285     0.35600
C1385       C  0.88272911  0.37370526  0.72415708     0.21200
C1386       C  0.88464341  0.36113594  0.69085036    -0.38700
C1387       C  0.87824506  0.36936252  0.65474311     0.20200
C1388       C  0.87021443  0.38854394  0.65206921     0.22800
C1389       C  0.86857248  0.40127048  0.68540705    -0.39200
C1390       C  0.87528447  0.39313437  0.72156706     0.21600
N1391       N  0.88638396  0.36879240  0.76206629    -0.32500
C1392       C  0.88140615  0.38518095  0.78397063    -0.10000
C1393       C  0.87465779  0.40084350  0.75977832    -0.28800
N1394       N  0.86519762  0.39274326  0.61426447    -0.45400
C1395       C  0.87048501  0.37627878  0.59270376    -0.04700
C1396       C  0.87865513  0.36137975  0.61694945    -0.22100
H1397       H  0.89051841  0.34597095  0.69297903     0.19700
H1398       H  0.86233861  0.41629235  0.68340734     0.18500
H1399       H  0.86854850  0.41520115  0.76912956     0.14800
H1400       H  0.88453278  0.34686345  0.60796474     0.14700
H1401       H  0.89104435  0.35476286  0.77265295     0.32800
H1402       H  0.85939160  0.40629349  0.60350605     0.35600
C1403       C  0.87290062  0.36894934  0.22286699     0.21200
C1404       C  0.87062635  0.35671919  0.18916571    -0.38700
C1405       C  0.86934381  0.36689731  0.15287744     0.20200
C1406       C  0.86992975  0.38772211  0.15034617     0.22800
C1407       C  0.87256213  0.39998457  0.18409575    -0.39200
C1408       C  0.87413695  0.38974893  0.22047417     0.21600
N1409       N  0.87382930  0.36286550  0.26077718    -0.32500
C1410       C  0.87587092  0.37983391  0.28288578    -0.10000
C1411       C  0.87629890  0.39695684  0.25881216    -0.28800
N1412       N  0.86834409  0.39363830  0.11228473    -0.45400
C1413       C  0.86713524  0.37642393  0.09060322    -0.04700
C1414       C  0.86779165  0.35945426  0.11479207    -0.22100
H1415       H  0.86990814  0.34044716  0.19107906     0.19700
H1416       H  0.87328923  0.41625547  0.18217851     0.18500
H1417       H  0.87721492  0.41254659  0.26819464     0.14800
H1418       H  0.86752864  0.34380517  0.10564001     0.14700
H1419       H  0.87280508  0.34804833  0.27106453     0.32800
H1420       H  0.86889021  0.40839204  0.10153524     0.35600
C1421       C  0.76952306  0.37382690  0.37048773     0.21200
C1422       C  0.75649396  0.37205319  0.33789099    -0.38700
C1423       C  0.73601563  0.37458636  0.34627158     0.20200
C1424       C  0.72902862  0.37819767  0.38437993     0.22800
C1425       C  0.74210692  0.38038078  0.41687951    -0.39200
C1426       C  0.76265339  0.37819659  0.40836321     0.21600
N1427       N  0.78959504  0.37184270  0.37031675    -0.32500
C1428       C  0.79565741  0.37526140  0.40818892    -0.10000
C1429       C  0.77929280  0.37942871  0.43282236    -0.28800
N1430       N  0.70885991  0.37924062  0.38468962    -0.45400
C1431       C  0.70305064  0.37668901  0.34641216    -0.04700
C1432       C  0.71953311  0.37385774  0.32149916    -0.22100
H1433       H  0.76190888  0.36888522  0.30820278     0.19700
H1434       H  0.73668179  0.38347954  0.44658644     0.18500
H1435       H  0.77952918  0.38267620  0.46433729     0.14800
H1436       H  0.71941560  0.37119447  0.28976796     0.14700
H1437       H  0.79867265  0.36862746  0.34577520     0.32800
H1438       H  0.69960680  0.38173979  0.40929596     0.35600
C1439       C  0.85935356  0.48304396  0.48378697     0.21200
C1440       C  0.84733479  0.49879354  0.49831530    -0.38700
C1441       C  0.85770747  0.51572774  0.51271533     0.20200
C1442       C  0.87849263  0.51675047  0.51331351     0.22800
C1443       C  0.89053194  0.50112047  0.49807883    -0.39200
C1444       C  0.88013012  0.48429433  0.48300312     0.21600
N1445       N  0.85311725  0.46496842  0.47054892    -0.32500
C1446       C  0.86997922  0.45465270  0.46073907    -0.10000
C1447       C  0.88716069  0.46628314  0.46767953    -0.28800
N1448       N  0.88466056  0.53443478  0.52880674    -0.45400
C1449       C  0.86768449  0.54490264  0.53736948    -0.04700
C1450       C  0.85057553  0.53373312  0.52761735    -0.22100
H1451       H  0.83108379  0.49788076  0.49857486     0.19700
H1452       H  0.90678734  0.50194651  0.49818614     0.18500
H1453       H  0.90268497  0.46168691  0.46446802     0.14800
H1454       H  0.83503213  0.53834560  0.53031886     0.14700
H1455       H  0.83831130  0.45970486  0.46946621     0.32800
H1456       H  0.89948672  0.53944857  0.53174582     0.35600
C1457       C  0.13370658  0.23067474  0.92284960     0.21200
C1458       C  0.14167901  0.24834625  0.90610547    -0.38700
C1459       C  0.13401963  0.26651921  0.92123747     0.20200
C1460       C  0.11960325  0.26704072  0.95090504     0.22800
C1461       C  0.11167376  0.24938394  0.96770676    -0.39200
C1462       C  0.11927032  0.23123038  0.95247648     0.21600
N1463       N  0.13819636  0.21151899  0.91317779    -0.32500
C1464       C  0.12650618  0.19980828  0.93679888    -0.10000
C1465       C  0.11453933  0.21157634  0.96176017    -0.28800
N1466       N  0.11466322  0.28615989  0.95983818    -0.45400
C1467       C  0.12596832  0.29793416  0.93562736    -0.04700
C1468       C  0.13824294  0.28621513  0.91112671    -0.22100
H1469       H  0.15288798  0.24797401  0.88279160     0.19700
H1470       H  0.10031041  0.24975028  0.99072963     0.18500
H1471       H  0.10372069  0.20642977  0.98355198     0.14800
H1472       H  0.14877391  0.29141214  0.88884228     0.14700
H1473       H  0.14849898  0.20671450  0.89171700     0.32800
H1474       H  0.10415240  0.29090135  0.98095112     0.35600
C1475       C  0.13085228  0.23242070  0.42117652     0.21200
C1476       C  0.13959171  0.24975606  0.40460716    -0.38700
C1477       C  0.13232195  0.26818763  0.41909680     0.20200
C1478       C  0.11749843  0.26923109  0.44791467     0.22800
C1479       C  0.10876083  0.25190855  0.46449774    -0.39200
C1480       C  0.11604022  0.23347912  0.45001722     0.21600
N1481       N  0.13508863  0.21313770  0.41232794    -0.32500
C1482       C  0.12292933  0.20181012  0.43572979    -0.10000
C1483       C  0.11082578  0.21397150  0.45970267    -0.28800
N1484       N  0.11318915  0.28849317  0.45662455    -0.45400
C1485       C  0.12531748  0.29981884  0.43316266    -0.04700
C1486       C  0.13748690  0.28769982  0.40929848    -0.22100
H1487       H  0.15117232  0.24894585  0.38205871     0.19700
H1488       H  0.09715227  0.25272579  0.48699346     0.18500
H1489       H  0.09968038  0.20918416  0.48116756     0.14800
H1490       H  0.14858447  0.29251143  0.38776076     0.14700
H1491       H  0.14562645  0.20799741  0.39163910     0.32800
H1492       H  0.10258848  0.29361916  0.47719843     0.35600
C1493       C  0.13436624  0.12617365  0.72300876     0.21200
C1494       C  0.14500880  0.13348739  0.69007022    -0.38700
C1495       C  0.13576323  0.13054975  0.65318265     0.20200
C1496       C  0.11711716  0.12141091  0.64952023     0.22800
C1497       C  0.10661086  0.11376153  0.68246926    -0.39200
C1498       C  0.11605927  0.11636708  0.71940918     0.21600
N1499       N  0.13979651  0.12756289  0.76122110    -0.32500
C1500       C  0.12504246  0.11838312  0.78230332    -0.10000
C1501       C  0.10998145  0.11101137  0.75727535    -0.28800
N1502       N  0.11156790  0.12055122  0.61122753    -0.45400
C1503       C  0.12699188  0.12875556  0.59043684    -0.04700
C1504       C  0.14239843  0.13514438  0.61547936    -0.22100
H1505       H  0.15946574  0.14086848  0.69297613     0.19700
H1506       H  0.09218690  0.10632165  0.67953320     0.18500
H1507       H  0.09617770  0.10348284  0.76571749     0.14800
H1508       H  0.15658006  0.14197827  0.60717393     0.14700
H1509       H  0.15272853  0.13451578  0.77238367     0.32800
H1510       H  0.09846843  0.11406547  0.59975170     0.35600
C1511       C  0.11757685  0.12580611  0.22389970     0.21200
C1512       C  0.11244751  0.13657707  0.18960896    -0.38700
C1513       C  0.11996613  0.12881234  0.15385665     0.20200
C1514       C  0.13193370  0.11177563  0.15237417     0.22800
C1515       C  0.13678249  0.10077289  0.18668372    -0.39200
C1516       C  0.12899225  0.10837882  0.22247850     0.21600
N1517       N  0.11320503  0.13074877  0.26157848    -0.32500
C1518       C  0.12156551  0.11620975  0.28432777    -0.10000
C1519       C  0.13144795  0.10187860  0.26111621    -0.28800
N1520       N  0.13753890  0.10781259  0.11476671    -0.45400
C1521       C  0.12881980  0.12227164  0.09218265    -0.04700
C1522       C  0.11768365  0.13558831  0.11551422    -0.22100
H1523       H  0.10344563  0.15014272  0.19073998     0.19700
H1524       H  0.14609099  0.08741752  0.18563362     0.18500
H1525       H  0.14022237  0.08917116  0.27127691     0.14800
H1526       H  0.10900823  0.14843311  0.10568538     0.14700
H1527       H  0.10544184  0.14350692  0.27136132     0.32800
H1528       H  0.14632597  0.09575335  0.10495148     0.35600
C1529       C  0.38029522  0.26730887  0.79993336     0.21200
C1530       C  0.38687809  0.25019380  0.77893747    -0.38700
C1531       C  0.38061462  0.23152871  0.79426068     0.20200
C1532       C  0.36866581  0.23012585  0.82782417     0.22800
C1533       C  0.36211968  0.24720796  0.84879886    -0.39200
C1534       C  0.36839985  0.26583968  0.83354999     0.21600
N1535       N  0.38424154  0.28672506  0.79159100    -0.32500
C1536       C  0.37477088  0.29773107  0.82002025    -0.10000
C1537       C  0.36474394  0.28520210  0.84680151    -0.28800
N1538       N  0.36514201  0.21076735  0.83701454    -0.45400
C1539       C  0.37501651  0.19965598  0.80938693    -0.04700
C1540       C  0.38479931  0.21207411  0.78199970    -0.22100
H1541       H  0.39630479  0.25132943  0.75281235     0.19700
H1542       H  0.35291513  0.24605748  0.87522852     0.18500
H1543       H  0.35594903  0.28965169  0.87241002     0.14800
H1544       H  0.39405851  0.20750257  0.75712220     0.14700
H1545       H  0.39280719  0.29216026  0.76790150     0.32800
H1546       H  0.35689588  0.20543619  0.86124366     0.35600
C1547       C  0.27214361  0.12229410  0.88631267     0.21200
C1548       C  0.25909541  0.11865258  0.91839224    -0.38700
C1549       C  0.23853728  0.12117626  0.91043077     0.20200
C1550       C  0.23166641  0.12718597  0.87350346     0.22800
C1551       C  0.24465470  0.13047295  0.84131440    -0.39200
C1552       C  0.26512843  0.12760602  0.84906333     0.21600
N1553       N  0.29229403  0.12101187  0.88613797    -0.32500
C1554       C  0.29804903  0.12507846  0.84834221    -0.10000
C1555       C  0.28155987  0.12921086  0.82426195    -0.28800
N1556       N  0.21160678  0.12901291  0.87365117    -0.45400
C1557       C  0.20551914  0.12391550  0.91073540    -0.04700
C1558       C  0.22187827  0.11877444  0.93459012    -0.22100
H1559       H  0.26454658  0.11417594  0.94734351     0.19700
H1560       H  0.23919748  0.13488726  0.81232742     0.18500
H1561       H  0.28162959  0.13311291  0.79305934     0.14800
H1562       H  0.22162683  0.11411812  0.96538023     0.14700
H1563       H  0.30156894  0.11725408  0.91003003     0.32800
H1564       H  0.20255196  0.13324934  0.84973714     0.35600
C1565       C  0.36435795  0.23458389  0.33005820     0.21200
C1566       C  0.35744938  0.25219108  0.34877004    -0.38700
C1567       C  0.36478215  0.27037985  0.33315707     0.20200
C1568       C  0.37795459  0.27097948  0.30131092     0.22800
C1569       C  0.38479325  0.25340374  0.28249809    -0.39200
C1570       C  0.37749022  0.23523818  0.29814902     0.21600
N1571       N  0.36017761  0.21539889  0.34003545    -0.32500
C1572       C  0.37079795  0.20379057  0.31435296    -0.10000
C1573       C  0.38167494  0.21564245  0.28766940    -0.28800
N1574       N  0.38296098  0.29008236  0.29254525    -0.45400
C1575       C  0.37290978  0.30174937  0.31899876    -0.04700
C1576       C  0.36138116  0.29000942  0.34477549    -0.22100
H1577       H  0.34731238  0.25175599  0.37392030     0.19700
H1578       H  0.39522411  0.25382997  0.25781351     0.18500
H1579       H  0.39164878  0.21058194  0.26427855     0.14800
H1580       H  0.35189407  0.29514626  0.36887480     0.14700
H1581       H  0.35096257  0.21051426  0.36328319     0.32800
H1582       H  0.39268088  0.29487960  0.27003391     0.35600
C1583       C  0.36445122  0.12139041  0.60005610     0.21200
C1584       C  0.35332869  0.12286035  0.56486765    -0.38700
C1585       C  0.36444234  0.12139293  0.52961632     0.20200
C1586       C  0.38503117  0.11827601  0.52923953     0.22800
C1587       C  0.39623259  0.11715401  0.56452291    -0.39200
C1588       C  0.38513605  0.11899015  0.59986716     0.21600
N1589       N  0.35741557  0.12262966  0.63739433    -0.32500
C1590       C  0.37378454  0.12142086  0.66115367    -0.10000
C1591       C  0.39134976  0.11914041  0.63889382    -0.28800
N1592       N  0.39194784  0.11723177  0.49167581    -0.45400
C1593       C  0.37563431  0.12011641  0.46826054    -0.04700
C1594       C  0.35828557  0.12285020  0.49079822    -0.22100
H1595       H  0.33722409  0.12518987  0.56492029     0.19700
H1596       H  0.41238559  0.11519315  0.56447253     0.18500
H1597       H  0.40658378  0.11775688  0.64984064     0.14800
H1598       H  0.34318626  0.12556049  0.48009731     0.14700
H1599       H  0.34247617  0.12461487  0.64615268     0.32800
H1600       H  0.40683328  0.11527774  0.48255178     0.35600
C1601       C  0.36662312  0.11481183  0.09971696     0.21200
C1602       C  0.36358321  0.10263488  0.06609261    -0.38700
C1603       C  0.36986598  0.11094014  0.02987065     0.20200
C1604       C  0.37809397  0.13009178  0.02737302     0.22800
C1605       C  0.38136851  0.14215412  0.06097949    -0.39200
C1606       C  0.37549309  0.13367468  0.09723531     0.21600
N1607       N  0.36242859  0.11020394  0.13766314    -0.32500
C1608       C  0.36904724  0.12607581  0.15946384    -0.10000
C1609       C  0.37730681  0.14100843  0.13533196    -0.28800
N1610       N  0.38201835  0.13487679  0.98949989    -0.45400
C1611       C  0.37661079  0.11854368  0.96777721    -0.04700
C1612       C  0.36902870  0.10323043  0.99181596    -0.22100
H1613       H  0.35693125  0.08776460  0.06803016     0.19700
H1614       H  0.38810141  0.15699140  0.05904931     0.18500
H1615       H  0.38399931  0.15515825  0.14450925     0.14800
H1616       H  0.36292319  0.08883730  0.98253446     0.14700
H1617       H  0.35614730  0.09679746  0.14822108     0.32800
H1618       H  0.38779188  0.14851885  0.97895860     0.35600
C1619       C  0.26881234  0.12493181  0.38051168     0.21200
C1620       C  0.25583106  0.12411967  0.41338031    -0.38700
C1621       C  0.23524018  0.12515657  0.40470970     0.20200
C1622       C  0.22818485  0.12728305  0.36627224     0.22800
C1623       C  0.24117359  0.12775997  0.33331315    -0.39200
C1624       C  0.26176726  0.12629044  0.34191993     0.21600
N1625       N  0.28897587  0.12454847  0.38099129    -0.32500
C1626       C  0.29485688  0.12530514  0.34246609    -0.10000
C1627       C  0.27833102  0.12624539  0.31706929    -0.28800
N1628       N  0.20801268  0.12836361  0.36603089    -0.45400
C1629       C  0.20214104  0.12651353  0.40446848    -0.04700
C1630       C  0.21870691  0.12442556  0.42950592    -0.22100
H1631       H  0.26136684  0.12275954  0.44348467     0.19700
H1632       H  0.23564504  0.12914389  0.30321072     0.18500
H1633       H  0.27845053  0.12732607  0.28499584     0.14800
H1634       H  0.21865458  0.12276001  0.46148153     0.14700
H1635       H  0.29822373  0.12374124  0.40601904     0.32800
H1636       H  0.19876130  0.12989667  0.34115291     0.35600
C1637       C  0.36548817  0.76779698  0.67259279     0.21200
C1638       C  0.35780357  0.75032631  0.65440709    -0.38700
C1639       C  0.36488095  0.73198065  0.66966096     0.20200
C1640       C  0.37852275  0.73117640  0.70066216     0.22800
C1641       C  0.38611381  0.74860957  0.71894047    -0.39200
C1642       C  0.37907292  0.76690881  0.70368093     0.21600
N1643       N  0.36157242  0.78705145  0.66299012    -0.32500
C1644       C  0.37278129  0.79845851  0.68813019    -0.10000
C1645       C  0.38381828  0.78642612  0.71406186    -0.28800
N1646       N  0.38302871  0.71200440  0.70955663    -0.45400
C1647       C  0.37218028  0.70043603  0.68413136    -0.04700
C1648       C  0.36064642  0.71235215  0.65873811    -0.22100
H1649       H  0.34723673  0.75097384  0.63000448     0.19700
H1650       H  0.39684444  0.74796931  0.74306662     0.18500
H1651       H  0.39417488  0.79130519  0.73695382     0.14800
H1652       H  0.35052550  0.70733752  0.63555548     0.14700
H1653       H  0.35205425  0.79210922  0.64045943     0.32800
H1654       H  0.39284657  0.70709306  0.73170527     0.35600
C1655       C  0.37950521  0.98379849  0.72824229     0.21200
C1656       C  0.39101139  0.99921857  0.74572892    -0.38700
C1657       C  0.38021736  0.01609671  0.75904165     0.20200
C1658       C  0.35959864  0.01767737  0.75443863     0.22800
C1659       C  0.34805478  0.00213952  0.73752091    -0.39200
C1660       C  0.35879449  0.98508133  0.72500577     0.21600
N1661       N  0.38603300  0.96573467  0.71552130    -0.32500
C1662       C  0.36932611  0.95523231  0.70516944    -0.10000
C1663       C  0.35204784  0.96683127  0.71049254    -0.28800
N1664       N  0.35301861  0.03555527  0.76800657    -0.45400
C1665       C  0.36950584  0.04531328  0.78194553    -0.04700
C1666       C  0.38674958  0.03360226  0.77713701    -0.22100
H1667       H  0.40714382  0.99803674  0.74921434     0.19700
H1668       H  0.33186861  0.00313243  0.73486176     0.18500
H1669       H  0.33659056  0.96217776  0.70619950     0.14800
H1670       H  0.40209017  0.03773974  0.78420080     0.14700
H1671       H  0.40078341  0.96037080  0.71645688     0.32800
H1672       H  0.33827157  0.04093265  0.76727401     0.35600
C1673       C  0.38133273  0.76992385  0.20233192     0.21200
C1674       C  0.38899006  0.75265730  0.22097037    -0.38700
C1675       C  0.38202712  0.73416768  0.20603693     0.20200
C1676       C  0.36851005  0.73299093  0.17485914     0.22800
C1677       C  0.36085174  0.75025980  0.15620832    -0.39200
C1678       C  0.36778637  0.76875538  0.17120049     0.21600
N1679       N  0.38563157  0.78923381  0.21095325    -0.32500
C1680       C  0.37476287  0.80047555  0.18514561    -0.10000
C1681       C  0.36341316  0.78823094  0.15987834    -0.28800
N1682       N  0.36439282  0.71367084  0.16597743    -0.45400
C1683       C  0.37533701  0.70244418  0.19169740    -0.04700
C1684       C  0.38653353  0.71470199  0.21718241    -0.22100
H1685       H  0.39960976  0.75355724  0.24526481     0.19700
H1686       H  0.35030464  0.74935639  0.13179022     0.18500
H1687       H  0.35335962  0.79294305  0.13640727     0.14800
H1688       H  0.39673452  0.71000265  0.24041331     0.14700
H1689       H  0.39538079  0.79444480  0.23305121     0.32800
H1690       H  0.35481849  0.70844259  0.14359294     0.35600
C1691       C  0.37653240  0.87286957  0.97294179     0.21200
C1692       C  0.37692311  0.86030262  0.93949435    -0.38700
C1693       C  0.37276410  0.86966049  0.90324402     0.20200
C1694       C  0.36818133  0.88995673  0.90045631     0.22800
C1695       C  0.36808058  0.90265608  0.93402195    -0.39200
C1696       C  0.37258235  0.89331249  0.97041670     0.21600
N1697       N  0.37925872  0.86732174  0.01078030    -0.32500
C1698       C  0.37726535  0.88430324  0.03278049    -0.10000
C1699       C  0.37325822  0.90094878  0.00870098    -0.28800
N1700       N  0.36488001  0.89509157  0.86234169    -0.45400
C1701       C  0.36782719  0.87799995  0.84090542    -0.04700
C1702       C  0.37276829  0.86186202  0.86537736    -0.22100
H1703       H  0.38024772  0.84437203  0.94156543     0.19700
H1704       H  0.36473916  0.91858066  0.93195768     0.18500
H1705       H  0.37019503  0.91625217  0.01808759     0.14800
H1706       H  0.37633150  0.84658660  0.85650566     0.14700
H1707       H  0.38184975  0.85272166  0.02115956     0.32800
H1708       H  0.36174410  0.90946830  0.85139474     0.35600
C1709       C  0.36864913  0.88682833  0.40091450     0.21200
C1710       C  0.36705785  0.89894424  0.43503307    -0.38700
C1711       C  0.37274168  0.88976252  0.47082443     0.20200
C1712       C  0.37910145  0.86991377  0.47244319     0.22800
C1713       C  0.38106829  0.85794968  0.43830160    -0.39200
C1714       C  0.37576683  0.86724338  0.40250933     0.21600
N1715       N  0.36447920  0.89205752  0.36327090    -0.32500
C1716       C  0.36940815  0.87583038  0.34079622    -0.10000
C1717       C  0.37655392  0.86008063  0.36414805    -0.28800
N1718       N  0.38236578  0.86428970  0.51012975    -0.45400
C1719       C  0.37844025  0.88074718  0.53266609    -0.04700
C1720       C  0.37251443  0.89701728  0.50928677    -0.22100
H1721       H  0.36174123  0.91434067  0.43381072     0.19700
H1722       H  0.38630194  0.84252333  0.43953873     0.18500
H1723       H  0.38192603  0.84551416  0.35427295     0.14800
H1724       H  0.36762234  0.91173308  0.51926728     0.14700
H1725       H  0.35943886  0.90606323  0.35327927     0.32800
H1726       H  0.38659619  0.85000103  0.52005711     0.35600
C1727       C  0.37963619  0.98501735  0.23914202     0.21200
C1728       C  0.39145795  0.00111989  0.25311635    -0.38700
C1729       C  0.38083183  0.01765543  0.26858949     0.20200
C1730       C  0.36002739  0.01823602  0.26931099     0.22800
C1731       C  0.34822663  0.00201197  0.25600695    -0.39200
C1732       C  0.35884994  0.98536039  0.24123685     0.21600
N1733       N  0.38606421  0.96743235  0.22375733    -0.32500
C1734       C  0.36924976  0.95637992  0.21679225    -0.10000
C1735       C  0.35200249  0.96704153  0.22739829    -0.28800
N1736       N  0.35353293  0.03616336  0.28277606    -0.45400
C1737       C  0.37029454  0.04701173  0.29127791    -0.04700
C1738       C  0.38762936  0.03590733  0.28316813    -0.22100
H1739       H  0.40771785  0.00082997  0.25189424     0.19700
H1740       H  0.33196210  0.00235439  0.25696969     0.18500
H1741       H  0.33656750  0.96187917  0.22601603     0.14800
H1742       H  0.40307038  0.04098910  0.28519890     0.14700
H1743       H  0.40096648  0.96286901  0.21993653     0.32800
H1744       H  0.33861972  0.04096753  0.28490203     0.35600
C1745       C  0.13449431  0.76803488  0.57426731     0.21200
C1746       C  0.14212643  0.75074860  0.59288918    -0.38700
C1747       C  0.13445744  0.73231225  0.57906263     0.20200
C1748       C  0.12038093  0.73121977  0.54884266     0.22800
C1749       C  0.11281177  0.74848466  0.53015892    -0.39200
C1750       C  0.12038803  0.76690556  0.54411053     0.21600
N1751       N  0.13866037  0.78734388  0.58313958    -0.32500
C1752       C  0.12704704  0.79857448  0.55860355    -0.10000
C1753       C  0.11553319  0.78635703  0.53364451    -0.28800
N1754       N  0.11520098  0.71199751  0.54160966    -0.45400
C1755       C  0.12598653  0.70073602  0.56746880    -0.04700
C1756       C  0.13820148  0.71286320  0.59134502    -0.22100
H1757       H  0.15296227  0.75161022  0.61681536     0.19700
H1758       H  0.10159791  0.74764634  0.50692109     0.18500
H1759       H  0.10467425  0.79107135  0.51162002     0.14800
H1760       H  0.14835304  0.70809856  0.61461110     0.14700
H1761       H  0.14845843  0.79255677  0.60516282     0.32800
H1762       H  0.10482519  0.70686729  0.52057492     0.35600
C1763       C  0.13123759  0.98593746  0.53351732     0.21200
C1764       C  0.13012064  0.00622502  0.54556955    -0.38700
C1765       C  0.13090546  0.02058941  0.51489592     0.20200
C1766       C  0.13217491  0.01510771  0.47525734     0.22800
C1767       C  0.13369502  0.99489164  0.46331813    -0.39200
C1768       C  0.13340192  0.98059968  0.49396429     0.21600
N1769       N  0.13050007  0.96938922  0.55664144    -0.32500
C1770       C  0.13266448  0.95349862  0.53158239    -0.10000
C1771       C  0.13462274  0.95990277  0.49235209    -0.28800
N1772       N  0.13200078  0.03147410  0.45174015    -0.45400
C1773       C  0.13112496  0.04755984  0.47652158    -0.04700
C1774       C  0.13048544  0.04141019  0.51618383    -0.22100
H1775       H  0.12874999  0.01050886  0.57649308     0.19700
H1776       H  0.13501133  0.99059638  0.43239056     0.18500
H1777       H  0.13618049  0.95059677  0.46608000     0.14800
H1778       H  0.12951560  0.05089291  0.54231686     0.14700
H1779       H  0.12876676  0.96891442  0.58746855     0.32800
H1780       H  0.13276795  0.03172695  0.42075036     0.35600
C1781       C  0.22988169  0.87368073  0.62833396     0.21200
C1782       C  0.24265763  0.87466034  0.66143985    -0.38700
C1783       C  0.26328124  0.87380291  0.65317520     0.20200
C1784       C  0.27055972  0.87162549  0.61487550     0.22800
C1785       C  0.25777603  0.87093620  0.58164767    -0.39200
C1786       C  0.23712666  0.87228369  0.58986192     0.21600
N1787       N  0.20973873  0.87428773  0.62846553    -0.32500
C1788       C  0.20403078  0.87368896  0.58985935    -0.10000
C1789       C  0.22068410  0.87252213  0.56471226    -0.28800
N1790       N  0.29073046  0.87101234  0.61500008    -0.45400
C1791       C  0.29634681  0.87325141  0.65349655    -0.04700
C1792       C  0.27964850  0.87507413  0.67826438    -0.22100
H1793       H  0.23694534  0.87618152  0.69140860     0.19700
H1794       H  0.26349986  0.86965062  0.55164400     0.18500
H1795       H  0.22072776  0.87160692  0.53260810     0.14800
H1796       H  0.27951224  0.87703314  0.71018932     0.14700
H1797       H  0.20039295  0.87530187  0.65334628     0.32800
H1798       H  0.30014749  0.86966260  0.59028638     0.35600
C1799       C  0.13276097  0.76712283  0.08812847     0.21200
C1800       C  0.13973319  0.74981603  0.10780684    -0.38700
C1801       C  0.13254132  0.73133421  0.09300175     0.20200
C1802       C  0.11939575  0.73028195  0.06118044     0.22800
C1803       C  0.11244818  0.74751944  0.04160749    -0.39200
C1804       C  0.11965229  0.76590959  0.05628191     0.21600
N1805       N  0.13729936  0.78647898  0.09619907    -0.32500
C1806       C  0.12694174  0.79756709  0.06928386    -0.10000
C1807       C  0.11583126  0.78524375  0.04387227    -0.28800
N1808       N  0.11516320  0.71106026  0.05202481    -0.45400
C1809       C  0.12575427  0.69966655  0.07794880    -0.04700
C1810       C  0.13672211  0.71176200  0.10420096    -0.22100
H1811       H  0.15008787  0.75066751  0.13254907     0.19700
H1812       H  0.10227851  0.74666166  0.01656383     0.18500
H1813       H  0.10614749  0.78983685  0.01970740     0.14800
H1814       H  0.14671917  0.70689497  0.12763965     0.14700
H1815       H  0.14674654  0.79181251  0.11870713     0.32800
H1816       H  0.10593399  0.70599731  0.02893333     0.35600
C1817       C  0.12211990  0.86892128  0.77539458     0.21200
C1818       C  0.12088563  0.85644726  0.80885733    -0.38700
C1819       C  0.12526450  0.86572760  0.84522249     0.20200
C1820       C  0.13072772  0.88583622  0.84798782     0.22800
C1821       C  0.13146547  0.89845835  0.81458446    -0.39200
C1822       C  0.12684180  0.88922053  0.77818154     0.21600
N1823       N  0.11994733  0.86338154  0.73731611    -0.32500
C1824       C  0.12304912  0.88028761  0.71566860    -0.10000
C1825       C  0.12715703  0.89681170  0.74004865    -0.28800
N1826       N  0.13464094  0.89086295  0.88586976    -0.45400
C1827       C  0.13123465  0.87393263  0.90732551    -0.04700
C1828       C  0.12528527  0.85795961  0.88309296    -0.22100
H1829       H  0.11708016  0.84061094  0.80666214     0.19700
H1830       H  0.13562620  0.91420679  0.81670910     0.18500
H1831       H  0.13101400  0.91197924  0.73097550     0.14800
H1832       H  0.12132017  0.84280277  0.89206581     0.14700
H1833       H  0.11702799  0.84887633  0.72660583     0.32800
H1834       H  0.13865195  0.90508809  0.89667001     0.35600
C1835       C  0.11478807  0.88259514  0.27581255     0.21200
C1836       C  0.10351678  0.88166826  0.31108025    -0.38700
C1837       C  0.11472018  0.87934470  0.34615676     0.20200
C1838       C  0.13552560  0.87839920  0.34606595     0.22800
C1839       C  0.14672767  0.87903089  0.31090202    -0.39200
C1840       C  0.13555346  0.88098337  0.27593833     0.21600
N1841       N  0.10781896  0.88398931  0.23837077    -0.32500
C1842       C  0.12432299  0.88284024  0.21484862    -0.10000
C1843       C  0.14181945  0.88091914  0.23712814    -0.28800
N1844       N  0.14268414  0.87647314  0.38311311    -0.45400
C1845       C  0.12633729  0.87583310  0.40703132    -0.04700
C1846       C  0.10859159  0.87753851  0.38513122    -0.22100
H1847       H  0.08726104  0.88242801  0.31116908     0.19700
H1848       H  0.16295498  0.87779730  0.31073161     0.18500
H1849       H  0.15704188  0.87919845  0.22623674     0.14800
H1850       H  0.09333029  0.87778656  0.39631158     0.14700
H1851       H  0.09281587  0.88469890  0.22932540     0.32800
H1852       H  0.15775957  0.87552555  0.39159817     0.35600
C1853       C  0.14165474  0.98208001  0.01369268     0.21200
C1854       C  0.15350852  0.99804355  0.99948277    -0.38700
C1855       C  0.14291433  0.01462774  0.98447160     0.20200
C1856       C  0.12211611  0.01511417  0.98302476     0.22800
C1857       C  0.11026547  0.99930694  0.99794928    -0.48800
C1858       C  0.12085381  0.98286722  0.01361836     0.21600
N1859       N  0.14806230  0.96424758  0.02761381    -0.32500
C1860       C  0.13123514  0.95371430  0.03701099    -0.10000
C1861       C  0.11396634  0.96489649  0.02906534    -0.28800
N1862       N  0.11568601  0.03267681  0.96780159    -0.45400
C1863       C  0.13249142  0.04362273  0.96034179    -0.04700
C1864       C  0.14976799  0.03287970  0.97039455    -0.22100
H1865       H  0.16977407  0.99758830  0.00008766     0.19700
H1866       H  0.09400102  0.99976873  0.99737804     0.18500
H1867       H  0.09848682  0.96000957  0.03173643     0.14800
H1868       H  0.16520119  0.03805018  0.96903094     0.14700
H1869       H  0.16293190  0.95928695  0.02942622     0.32800
H1870       H  0.10078704  0.03741226  0.96493108     0.35600
C1871       C  0.27159910  0.87503034  0.11422553     0.21200
C1872       C  0.25882167  0.87287582  0.08129977    -0.38700
C1873       C  0.23819788  0.87420823  0.08947249     0.20200
C1874       C  0.23097134  0.87703117  0.12767303     0.22800
C1875       C  0.24374068  0.87956028  0.16042224    -0.39200
C1876       C  0.26433455  0.87860157  0.15214460     0.21600
N1877       N  0.29173058  0.87398916  0.11451281    -0.32500
C1878       C  0.29729432  0.87716607  0.15276041    -0.10000
C1879       C  0.28065759  0.88029001  0.17711637    -0.28800
N1880       N  0.21083795  0.87712910  0.12788557    -0.45400
C1881       C  0.20517078  0.87479369  0.08952366    -0.04700
C1882       C  0.22177133  0.87300651  0.06449774    -0.22100
H1883       H  0.26451695  0.87031156  0.05159209     0.19700
H1884       H  0.23804630  0.88201822  0.19016655     0.18500
H1885       H  0.28052044  0.88296993  0.20884166     0.14800
H1886       H  0.22179353  0.87082439  0.03262870     0.14700
H1887       H  0.30112741  0.87135434  0.09017313     0.32800
H1888       H  0.20147430  0.87900275  0.15254986     0.35600
C1889       C  0.51905930  0.11258551  0.83797969     0.21200
C1890       C  0.50168937  0.10277057  0.85211348    -0.38700
C1891       C  0.48327261  0.11152088  0.84105502     0.20200
C1892       C  0.48239198  0.12870856  0.81785718     0.22800
C1893       C  0.49966670  0.13850335  0.80396047    -0.39200
C1894       C  0.51795655  0.12976114  0.81481266     0.21600
N1895       N  0.53834749  0.10702152  0.84295549    -0.32500
C1896       C  0.54946736  0.12073943  0.82259484    -0.10000
C1897       C  0.53725368  0.13516226  0.80480677    -0.28800
N1898       N  0.46330120  0.13358462  0.80973443    -0.45400
C1899       C  0.45175618  0.11942843  0.82761657    -0.04700
C1900       C  0.46365029  0.10542969  0.84781990    -0.22100
H1901       H  0.50244936  0.08914804  0.86968662     0.19700
H1902       H  0.49890142  0.15175061  0.78530325     0.18500
H1903       H  0.54186906  0.14775624  0.78652115     0.14800
H1904       H  0.45866272  0.09225719  0.86401934     0.14700
H1905       H  0.54359532  0.09452250  0.85866611     0.32800
H1906       H  0.45843709  0.14559565  0.79216167     0.35600
C1907       C  0.62003228  0.23200697  0.79936007     0.21200
C1908       C  0.61261131  0.24949926  0.78120476    -0.38700
C1909       C  0.61940965  0.26779776  0.79733415     0.20200
C1910       C  0.63255998  0.26864928  0.82916462     0.22800
C1911       C  0.63993594  0.25114480  0.84740024    -0.39200
C1912       C  0.63316386  0.23282680  0.83122127     0.21600
N1913       N  0.61583701  0.21278723  0.78964685    -0.32500
C1914       C  0.62632866  0.20125458  0.81556259    -0.10000
C1915       C  0.63733958  0.21322945  0.84191949    -0.28800
N1916       N  0.63685980  0.28789233  0.83864302    -0.45400
C1917       C  0.62640088  0.29935493  0.81256803    -0.04700
C1918       C  0.61530240  0.28734529  0.78643714    -0.22100
H1919       H  0.60234434  0.24890774  0.75628927     0.19700
H1920       H  0.65021985  0.25173962  0.87228410     0.18500
H1921       H  0.64698719  0.20825766  0.86584094     0.14800
H1922       H  0.60560807  0.29227081  0.76254571     0.14700
H1923       H  0.60630075  0.20782459  0.76696084     0.32800
H1924       H  0.64638329  0.29290871  0.86130083     0.35600
C1925       C  0.51745963  0.13424887  0.30407843     0.21200
C1926       C  0.50009386  0.14373198  0.28955423    -0.38700
C1927       C  0.48174717  0.13549001  0.30236145     0.20200
C1928       C  0.48082198  0.11915563  0.32784820     0.22800
C1929       C  0.49814418  0.10979892  0.34258701    -0.39200
C1930       C  0.51644572  0.11795489  0.32964298     0.21600
N1931       N  0.53669706  0.13864164  0.29522824    -0.32500
C1932       C  0.54795768  0.12500400  0.31527769    -0.10000
C1933       C  0.53584511  0.11193821  0.33721994    -0.28800
N1934       N  0.46167387  0.11375082  0.33460583    -0.45400
C1935       C  0.45027219  0.12666588  0.31317659    -0.04700
C1936       C  0.46223692  0.14052851  0.29278207    -0.22100
H1937       H  0.50081160  0.15633487  0.26922751     0.19700
H1938       H  0.49742194  0.09688058  0.36213339     0.18500
H1939       H  0.54059351  0.09948517  0.35567966     0.14800
H1940       H  0.45733170  0.15246988  0.27320719     0.14700
H1941       H  0.54183082  0.15005065  0.27639528     0.32800
H1942       H  0.45668288  0.10183303  0.35233296     0.35600
C1943       C  0.62378002  0.26925461  0.29220010     0.21200
C1944       C  0.61644246  0.25146425  0.27481537    -0.38700
C1945       C  0.62176906  0.23348559  0.29396254     0.20200
C1946       C  0.63356545  0.23317283  0.32781578     0.22800
C1947       C  0.64095040  0.25098942  0.34521301    -0.39200
C1948       C  0.63557236  0.26900612  0.32607456     0.21600
N1949       N  0.62010096  0.28828958  0.28062845    -0.32500
C1950       C  0.62949635  0.30030602  0.30745766    -0.10000
C1951       C  0.63944765  0.28880647  0.33607655    -0.28800
N1952       N  0.63644291  0.21410200  0.34021151    -0.45400
C1953       C  0.62641413  0.20221442  0.31397311    -0.04700
C1954       C  0.61704456  0.21380166  0.28482179    -0.22100
H1955       H  0.60707972  0.25161780  0.24853032     0.19700
H1956       H  0.65001978  0.25085460  0.37189907     0.18500
H1957       H  0.64779793  0.29422312  0.36155616     0.14800
H1958       H  0.60811624  0.20850354  0.26002234     0.14700
H1959       H  0.61123815  0.29282542  0.25664095     0.32800
H1960       H  0.64480718  0.20945971  0.36480985     0.35600
C1961       C  0.61920229  0.12043427  0.60235829     0.21200
C1962       C  0.60699521  0.11626677  0.56933006    -0.38700
C1963       C  0.61651782  0.11740874  0.53224399     0.20200
C1964       C  0.63658033  0.12268731  0.52846645     0.22800
C1965       C  0.64890530  0.12642729  0.56154410    -0.39200
C1966       C  0.63945548  0.12493447  0.59867725     0.21600
N1967       N  0.61361540  0.12071611  0.64065297    -0.32500
C1968       C  0.63046204  0.12506642  0.66162163    -0.10000
C1969       C  0.64697298  0.12766332  0.63654552    -0.28800
N1970       N  0.64174915  0.12391498  0.49002250    -0.45400
C1971       C  0.62499411  0.11903542  0.46917570    -0.04700
C1972       C  0.60893918  0.11472058  0.49441210    -0.22100
H1973       H  0.59119940  0.11260313  0.57229169     0.19700
H1974       H  0.66462778  0.13039711  0.55855048     0.18500
H1975       H  0.66228062  0.13128350  0.64486423     0.14800
H1976       H  0.59365362  0.11096225  0.48617990     0.14700
H1977       H  0.59927186  0.11778572  0.65194513     0.32800
H1978       H  0.65578926  0.12796816  0.47857703     0.35600
C1979       C  0.62279082  0.12854277  0.09995412     0.21200
C1980       C  0.61647966  0.13830891  0.06536022    -0.38700
C1981       C  0.61909327  0.12749836  0.03003489     0.20200
C1982       C  0.62716302  0.10827725  0.02903478     0.22800
C1983       C  0.63383481  0.09859617  0.06373417    -0.39200
C1984       C  0.63140810  0.10955523  0.09922234     0.21600
N1985       N  0.62140909  0.13552426  0.13726246    -0.32500
C1986       C  0.62938569  0.12102098  0.16062106    -0.10000
C1987       C  0.63595802  0.10461655  0.13802061    -0.28800
N1988       N  0.62833781  0.10150952  0.99134936    -0.45400
C1989       C  0.62131005  0.11676493  0.96848516    -0.04700
C1990       C  0.61542098  0.13315582  0.99155125    -0.22100
H1991       H  0.61007558  0.15329578  0.06589285     0.19700
H1992       H  0.64046829  0.08371257  0.06314090     0.18500
H1993       H  0.64248956  0.09071026  0.14867724     0.14800
H1994       H  0.60986394  0.14757023  0.98134247     0.14700
H1995       H  0.61523425  0.14925187  0.14634014     0.32800
H1996       H  0.63452765  0.08789991  0.98165323     0.35600
C1997       C  0.98256963  0.11289258  0.92299874     0.21200
C1998       C  0.99990844  0.10352283  0.90795628    -0.38700
C1999       C  0.01824425  0.11086023  0.92277481     0.20200
C2000       C  0.01916512  0.12632159  0.95041186     0.22800
C2001       C  0.00185465  0.13563324  0.96547554    -0.39200
C2002       C  0.98355768  0.12831995  0.95068753     0.21600
N2003       N  0.96335127  0.10870835  0.91381498    -0.32500
C2004       C  0.95205449  0.12154273  0.93590318    -0.10000
C2005       C  0.96413211  0.13402406  0.95923387    -0.28800
N2006       N  0.03831917  0.13076196  0.95941362    -0.45400
C2007       C  0.04974155  0.11807307  0.93737036    -0.04700
C2008       C  0.03776665  0.10536652  0.91416577    -0.22100
H2009       H  0.99917637  0.09147153  0.88627476     0.19700
H2010       H  0.00258773  0.14772898  0.98705786     0.18500
H2011       H  0.95933942  0.14560870  0.97983223     0.14800
H2012       H  0.04268274  0.09385655  0.89351573     0.14700
H2013       H  0.95823963  0.09772036  0.89396418     0.32800
H2014       H  0.04331308  0.14186680  0.97913425     0.35600
C2015       C  0.86749861  0.23212127  0.91561115     0.21200
C2016       C  0.86062337  0.24969129  0.89668372    -0.38700
C2017       C  0.86669440  0.26802236  0.91401973     0.20200
C2018       C  0.87870354  0.26873359  0.94756590     0.22800
C2019       C  0.88563580  0.25121092  0.96633504    -0.39200
C2020       C  0.87957301  0.23293512  0.94905205     0.21600
N2021       N  0.86377941  0.21285118  0.90524907    -0.32500
C2022       C  0.87362322  0.20134787  0.93225286    -0.10000
C2023       C  0.88365107  0.21337118  0.95998353    -0.28800
N2024       N  0.88236765  0.28790105  0.95834608    -0.45400
C2025       C  0.87265539  0.29958635  0.93153277    -0.04700
C2026       C  0.86269558  0.28771948  0.90335041    -0.22100
H2027       H  0.85121399  0.24913233  0.87048169     0.19700
H2028       H  0.89504494  0.25176854  0.99254128     0.18500
H2029       H  0.89267836  0.20844533  0.98487266     0.14800
H2030       H  0.85381158  0.29281319  0.87839751     0.14700
H2031       H  0.85515039  0.20784210  0.88125493     0.32800
H2032       H  0.89101925  0.29273707  0.98245129     0.35600
C2033       C  0.76392485  0.12196433  0.91026485     0.21200
C2034       C  0.74381978  0.12449806  0.92205624    -0.38700
C2035       C  0.72952913  0.12375847  0.89135770     0.20200
C2036       C  0.73484038  0.12031455  0.85213440     0.22800
C2037       C  0.75489289  0.11805625  0.84031657    -0.39200
C2038       C  0.76916569  0.11923995  0.87078403     0.21600
N2039       N  0.78044540  0.12268642  0.93334250    -0.32500
C2040       C  0.79619724  0.12090301  0.90803040    -0.10000
C2041       C  0.78977538  0.11872595  0.86889872    -0.28800
N2042       N  0.71854424  0.12013290  0.82863353    -0.45400
C2043       C  0.70274935  0.12386629  0.85289260    -0.04700
C2044       C  0.70896192  0.12624042  0.89224928    -0.22100
H2045       H  0.73964509  0.12715487  0.95270240     0.19700
H2046       H  0.75910279  0.11587709  0.80954173     0.18500
H2047       H  0.79900910  0.11718803  0.84257286     0.14800
H2048       H  0.69965937  0.12919163  0.91800309     0.14700
H2049       H  0.78102051  0.12499078  0.96402566     0.32800
H2050       H  0.71820968  0.11789986  0.79791227     0.35600
C2051       C  0.01742474  0.10994673  0.41829984     0.21200
C2052       C  0.99994699  0.09963172  0.40633389    -0.38700
C2053       C  0.98166469  0.10879465  0.41691298     0.20200
C2054       C  0.98095931  0.12680842  0.43773145     0.22800
C2055       C  0.99833226  0.13711147  0.44948027    -0.39200
C2056       C  0.01650206  0.12796468  0.43904634     0.21600
N2057       N  0.03667952  0.10429496  0.41293510    -0.32500
C2058       C  0.04794344  0.11884215  0.43061486    -0.10000
C2059       C  0.03585728  0.13382720  0.44707543    -0.28800
N2060       N  0.96192575  0.13220705  0.44509232    -0.45400
C2061       C  0.95030712  0.11758717  0.42885821    -0.04700
C2062       C  0.96203509  0.10270566  0.41084717    -0.22100
H2063       H  0.00053318  0.08545201  0.39041973     0.19700
H2064       H  0.99774127  0.15111019  0.46602222     0.18500
H2065       H  0.04061349  0.14714330  0.46320059     0.14800
H2066       H  0.95690699  0.08918914  0.39587412     0.14700
H2067       H  0.04180974  0.09127633  0.39869703     0.32800
H2068       H  0.95714022  0.14503724  0.46044852     0.35600
C2069       C  0.88150158  0.23069055  0.44901447     0.21200
C2070       C  0.88996290  0.24819523  0.46549963    -0.38700
C2071       C  0.88179167  0.26644659  0.45218030     0.20200
C2072       C  0.86634449  0.26718752  0.42466110     0.22800
C2073       C  0.85784143  0.24968137  0.40829820    -0.39200
C2074       C  0.86608244  0.23144677  0.42143853     0.21600
N2075       N  0.88677830  0.21151996  0.45632472    -0.32500
C2076       C  0.87467196  0.20002142  0.43310013    -0.10000
C2077       C  0.86157336  0.21189936  0.41089292    -0.28800
N2078       N  0.86157276  0.28636756  0.41615836    -0.45400
C2079       C  0.87407906  0.29793611  0.43839306    -0.04700
C2080       C  0.88686627  0.28604903  0.46136739    -0.22100
H2081       H  0.90213700  0.24765123  0.48679476     0.19700
H2082       H  0.84585941  0.25022664  0.38658413     0.18500
H2083       H  0.85026921  0.20689609  0.38993496     0.14800
H2084       H  0.89850274  0.29108011  0.48157612     0.14700
H2085       H  0.89797470  0.20657852  0.47571025     0.32800
H2086       H  0.85061235  0.29127819  0.39621206     0.35600
C2087       C  0.88200981  0.12148874  0.64629214     0.21200
C2088       C  0.89379512  0.11621386  0.67926829    -0.38700
C2089       C  0.88441512  0.11820017  0.71638263     0.20200
C2090       C  0.86496531  0.12536139  0.72018622     0.22800
C2091       C  0.85308787  0.13033003  0.68722686    -0.39200
C2092       C  0.86229775  0.12789118  0.65011128     0.21600
N2093       N  0.88733176  0.12067632  0.60787374    -0.32500
C2094       C  0.87077456  0.12613626  0.58709023    -0.10000
C2095       C  0.85480219  0.13071278  0.61233321    -0.28800
N2096       N  0.85971738  0.12656767  0.75854458    -0.45400
C2097       C  0.87576091  0.11980826  0.77936858    -0.04700
C2098       C  0.89147747  0.11430752  0.75417934    -0.22100
H2099       H  0.90908430  0.11086577  0.67621526     0.19700
H2100       H  0.83776653  0.13558843  0.69027680     0.18500
H2101       H  0.83980623  0.13545532  0.60414988     0.14800
H2102       H  0.90620386  0.10881625  0.76243868     0.14700
H2103       H  0.90120044  0.11613132  0.59638214     0.32800
H2104       H  0.84602210  0.13167079  0.76993998     0.35600
C2105       C  0.87948792  0.12797209  0.21970874     0.21200
C2106       C  0.88007881  0.14049954  0.18629868    -0.38700
C2107       C  0.87603531  0.13106933  0.14998125     0.20200
C2108       C  0.87139760  0.11075769  0.14716747     0.22800
C2109       C  0.87115339  0.09810953  0.18061407    -0.39200
C2110       C  0.87550997  0.10751430  0.21702654     0.21600
N2111       N  0.88164605  0.13361219  0.25768984    -0.32500
C2112       C  0.87919123  0.11666362  0.27952399    -0.10000
C2113       C  0.87558572  0.09996059  0.25525655    -0.28800
N2114       N  0.86792045  0.10557641  0.10917222    -0.45400
C2115       C  0.87081766  0.12263954  0.08779325    -0.04700
C2116       C  0.87591232  0.13883583  0.11214648    -0.22100
H2117       H  0.88329625  0.15646614  0.18848044     0.19700
H2118       H  0.86764672  0.08220345  0.17848946     0.18500
H2119       H  0.87219358  0.08470393  0.26445889     0.14800
H2120       H  0.87933893  0.15413557  0.10325742     0.14700
H2121       H  0.88397640  0.14825276  0.26823882     0.32800
H2122       H  0.86457971  0.09120074  0.09826176     0.35600
C2123       C  0.77070878  0.12678911  0.36079892     0.21200
C2124       C  0.75761762  0.12518705  0.32814818    -0.38700
C2125       C  0.73702241  0.12623009  0.33711135     0.20200
C2126       C  0.73018222  0.12919351  0.37553570     0.22800
C2127       C  0.74322098  0.13049883  0.40813231    -0.39200
C2128       C  0.76371504  0.12893303  0.39932091     0.21600
N2129       N  0.79087527  0.12587389  0.36041228    -0.32500
C2130       C  0.79665953  0.12697807  0.39898731    -0.10000
C2131       C  0.78016383  0.12884701  0.42418791    -0.28800
N2132       N  0.71006757  0.12976968  0.37644269    -0.45400
C2133       C  0.70390791  0.12672071  0.33856521    -0.04700
C2134       C  0.72027128  0.12438050  0.31299002    -0.22100
H2135       H  0.76305569  0.12299231  0.29814108     0.19700
H2136       H  0.73776997  0.13229546  0.43823441     0.18500
H2137       H  0.78022640  0.13012470  0.45624687     0.14800
H2138       H  0.71994916  0.12173084  0.28126353     0.14700
H2139       H  0.80013611  0.12416433  0.33555677     0.32800
H2140       H  0.70101021  0.13159125  0.40156475     0.35600
C2141       C  0.87048247  0.76826496  0.58604756     0.21200
C2142       C  0.86358922  0.75103479  0.60609122    -0.38700
C2143       C  0.86944592  0.73249974  0.58964389     0.20200
C2144       C  0.88128863  0.73127749  0.55588922     0.22800
C2145       C  0.88815798  0.74848742  0.53585060    -0.39200
C2146       C  0.88229437  0.76700100  0.55226063     0.21600
N2147       N  0.86692365  0.78761643  0.59551965    -0.32500
C2148       C  0.87652221  0.79875151  0.56755405    -0.10000
C2149       C  0.88631189  0.78641681  0.54008595    -0.28800
N2150       N  0.88471526  0.71196759  0.54608301    -0.45400
C2151       C  0.87493678  0.70076511  0.57365648    -0.04700
C2152       C  0.86523775  0.71303085  0.60140509    -0.22100
H2153       H  0.85430798  0.75199360  0.63244905     0.19700
H2154       H  0.89735557  0.74752664  0.50937803     0.18500
H2155       H  0.89511078  0.79103465  0.51460641     0.14800
H2156       H  0.85628124  0.70833968  0.62661675     0.14700
H2157       H  0.85846343  0.79292019  0.61950827     0.32800
H2158       H  0.89308434  0.70673100  0.52191460     0.35600
C2159       C  0.98227339  0.88516173  0.58351244     0.21200
C2160       C  0.99969858  0.89409398  0.59937656    -0.38700
C2161       C  0.01801190  0.88647192  0.58503892     0.20200
C2162       C  0.01879245  0.87107199  0.55726420     0.22800
C2163       C  0.00142730  0.86214655  0.54149781    -0.39200
C2164       C  0.98318716  0.86981999  0.55563180     0.21600
N2165       N  0.96305820  0.89010831  0.59113041    -0.32500
C2166       C  0.95173675  0.87790089  0.56769823    -0.10000
C2167       C  0.96376513  0.86497029  0.54531701    -0.28800
N2168       N  0.03787875  0.86673853  0.54781803    -0.45400
C2169       C  0.04945081  0.87948852  0.56950778    -0.04700
C2170       C  0.03761233  0.89204989  0.59322383    -0.22100
H2171       H  0.99904097  0.90625576  0.62081680     0.19700
H2172       H  0.00207909  0.85028772  0.51939932     0.18500
H2173       H  0.95895091  0.85378442  0.52386169     0.14800
H2174       H  0.04264347  0.90375420  0.61336034     0.14700
H2175       H  0.95798063  0.90131298  0.61052082     0.32800
H2176       H  0.04272682  0.85589396  0.52741392     0.35600
C2177       C  0.85953925  0.98387691  0.51878553     0.21200
C2178       C  0.84732196  0.00058702  0.51043435    -0.38700
C2179       C  0.85705595  0.01707852  0.49276108     0.20200
C2180       C  0.87730975  0.01672787  0.48328120     0.22800
C2181       C  0.88959061  0.00013646  0.49216092    -0.39200
C2182       C  0.87995283  0.98382959  0.51070266     0.21600
N2183       N  0.85380435  0.96618102  0.53456499    -0.32500
C2184       C  0.87073383  0.95492908  0.53734867    -0.10000
C2185       C  0.88739432  0.96544654  0.52293672    -0.28800
N2186       N  0.88296798  0.03424745  0.46670959    -0.45400
C2187       C  0.86632637  0.04601882  0.46639636    -0.04700
C2188       C  0.84983835  0.03584829  0.48244432    -0.22100
H2189       H  0.83143112  0.00076852  0.51738193     0.19700
H2190       H  0.90549528  0.99998452  0.48532402     0.18500
H2191       H  0.90265203  0.95999525  0.51997161     0.14800
H2192       H  0.83474239  0.04154122  0.48662276     0.14700
H2193       H  0.83921860  0.96187675  0.54241645     0.32800
H2194       H  0.89745555  0.03825687  0.45762525     0.35600
C2195       C  0.88230176  0.76909022  0.05785903     0.21200
C2196       C  0.88919398  0.75155680  0.03900929    -0.38700
C2197       C  0.88256476  0.73335601  0.05553106     0.20200
C2198       C  0.87006548  0.73263794  0.08840466     0.22800
C2199       C  0.86321170  0.75020787  0.10737755    -0.39200
C2200       C  0.86979451  0.76845488  0.09073344     0.21600
N2201       N  0.88608204  0.78820983  0.04722239    -0.32500
C2202       C  0.87584716  0.79989262  0.07334933    -0.10000
C2203       C  0.86555410  0.78812593  0.10108638    -0.28800
N2204       N  0.86585702  0.71343746  0.09812222    -0.45400
C2205       C  0.87579469  0.70190002  0.07124520    -0.04700
C2206       C  0.88635829  0.71379412  0.04420471    -0.22100
H2207       H  0.89887836  0.75205480  0.01317259     0.19700
H2208       H  0.85335420  0.74970945  0.13295447     0.18500
H2209       H  0.85605636  0.79326256  0.12517097     0.14800
H2210       H  0.89560026  0.70878912  0.01962408     0.14700
H2211       H  0.89486994  0.79300537  0.02330475     0.32800
H2212       H  0.85685773  0.70849630  0.12161904     0.35600
C2213       C  0.98228825  0.87287073  0.04454379     0.21200
C2214       C  0.99945442  0.86503739  0.02578690    -0.38700
C2215       C  0.01795897  0.87198439  0.04044812     0.20200
C2216       C  0.01922221  0.88578753  0.07124627     0.22800
C2217       C  0.00206231  0.89365766  0.08994312    -0.39200
C2218       C  0.98356158  0.88663864  0.07540035     0.21600
N2219       N  0.96299132  0.86853593  0.03633345    -0.32500
C2220       C  0.95185711  0.87965664  0.06202663    -0.10000
C2221       C  0.96417090  0.89114045  0.08693304    -0.28800
N2222       N  0.03851152  0.88972934  0.08014249    -0.45400
C2223       C  0.04964657  0.87825418  0.05507162    -0.04700
C2224       C  0.03735866  0.86700749  0.02973568    -0.22100
H2225       H  0.99847141  0.85419962  0.00178425     0.19700
H2226       H  0.00305209  0.90435151  0.11419648     0.18500
H2227       H  0.95955736  0.90141721  0.11021677     0.14800
H2228       H  0.04198823  0.85647914  0.00690721     0.14700
H2229       H  0.95771535  0.85870014  0.01439343     0.32800
H2230       H  0.04377808  0.89939706  0.10238082     0.35600
C2231       C  0.87929470  0.87116597  0.77868599     0.21200
C2232       C  0.88214490  0.85897944  0.81219414    -0.38700
C2233       C  0.87543401  0.86707046  0.84828740     0.20200
C2234       C  0.86617286  0.88570277  0.85071368     0.22800
C2235       C  0.86354095  0.89802870  0.81718189    -0.39200
C2236       C  0.87066359  0.89010379  0.78109573     0.21600
N2237       N  0.88371161  0.86652747  0.74089195    -0.32500
C2238       C  0.87817530  0.88268623  0.71896701    -0.10000
C2239       C  0.87008922  0.89782480  0.74296875    -0.28800
N2240       N  0.86154006  0.89010342  0.88862574    -0.45400
C2241       C  0.86835996  0.87438761  0.91049788    -0.04700
C2242       C  0.87704045  0.85968571  0.88636584    -0.22100
H2243       H  0.88919776  0.84431659  0.81031455     0.19700
H2244       H  0.85657463  0.91273030  0.81909657     0.18500
H2245       H  0.86353663  0.91194634  0.73353460     0.14800
H2246       H  0.88418754  0.84581902  0.89559412     0.14700
H2247       H  0.88960546  0.85292744  0.73041360     0.32800
H2248       H  0.85514152  0.90344535  0.89920856     0.35600
C2249       C  0.87962979  0.87389639  0.27791619     0.21200
C2250       C  0.88209764  0.86144461  0.31107450    -0.38700
C2251       C  0.87632303  0.86978534  0.34749416     0.20200
C2252       C  0.86829846  0.88895981  0.35065440     0.22800
C2253       C  0.86606709  0.90158838  0.31738423    -0.39200
C2254       C  0.87222385  0.89333840  0.28083620     0.21600
N2255       N  0.88318913  0.86899630  0.23996876    -0.32500
C2256       C  0.87832140  0.88543144  0.21831840    -0.10000
C2257       C  0.87153471  0.90107916  0.24267913    -0.28800
N2258       N  0.86405938  0.89327934  0.38881603    -0.45400
C2259       C  0.86986767  0.87689198  0.40995798    -0.04700
C2260       C  0.87756229  0.86193920  0.38520339    -0.22100
H2261       H  0.88808114  0.84632861  0.30865631     0.19700
H2262       H  0.85997475  0.91665981  0.31977407     0.18500
H2263       H  0.86570441  0.91556582  0.23353730     0.14800
H2264       H  0.88364479  0.84746395  0.39377073     0.14700
H2265       H  0.88805881  0.85504508  0.22922161     0.32800
H2266       H  0.85841299  0.90683656  0.39999699     0.35600
C2267       C  0.88237143  0.98285082  0.00809290     0.21200
C2268       C  0.89437222  0.99863917  0.99332782    -0.38700
C2269       C  0.88388540  0.01502014  0.97693240     0.20200
C2270       C  0.86307963  0.01564285  0.97594816     0.22800
C2271       C  0.85114948  0.99976629  0.99001226    -0.39200
C2272       C  0.86159644  0.98336488  0.00586751     0.21600
N2273       N  0.88854691  0.96549862  0.02473043    -0.32500
C2274       C  0.87154524  0.95484446  0.03240513    -0.10000
C2275       C  0.85447943  0.96549933  0.02100592    -0.28800
N2276       N  0.85664628  0.03342741  0.96206774    -0.45400
C2277       C  0.87340291  0.04422651  0.95364343    -0.04700
C2278       C  0.89074730  0.03319996  0.96211665    -0.22100
H2279       H  0.91062315  0.99829443  0.99487725     0.19700
H2280       H  0.83488887  0.00024488  0.98905268     0.18500
H2281       H  0.83897032  0.96058402  0.02263638     0.14800
H2282       H  0.90617911  0.03835149  0.96051039     0.14700
H2283       H  0.90337763  0.96080919  0.02893407     0.32800
H2284       H  0.84174319  0.03826351  0.95999404     0.35600
C2285       C  0.61777045  0.76886462  0.68750731     0.21200
C2286       C  0.60941041  0.75153187  0.70463964    -0.38700
C2287       C  0.61567823  0.73315917  0.68829741     0.20200
C2288       C  0.62916140  0.73206372  0.65703283     0.22800
C2289       C  0.63749592  0.74947380  0.63970949    -0.39200
C2290       C  0.63129508  0.76792513  0.65628182     0.21600
N2291       N  0.61458282  0.78803255  0.69857721    -0.32500
C2292       C  0.62614814  0.79951485  0.67437175    -0.10000
C2293       C  0.63679966  0.78752195  0.64744820    -0.28800
N2294       N  0.63316543  0.71270006  0.64796157    -0.45400
C2295       C  0.62223873  0.70146161  0.67387096    -0.04700
C2296       C  0.61108940  0.71372684  0.69931818    -0.22100
H2297       H  0.59903589  0.75228978  0.72938418     0.19700
H2298       H  0.64824135  0.74870069  0.61559643     0.18500
H2299       H  0.64722596  0.79245700  0.62474491     0.14800
H2300       H  0.60128692  0.70904609  0.72328221     0.14700
H2301       H  0.60516169  0.79299470  0.72142762     0.32800
H2302       H  0.64306755  0.70746745  0.62616815     0.35600
C2303       C  0.51874440  0.87199447  0.70451418     0.21200
C2304       C  0.50127975  0.86300637  0.72009822    -0.38700
C2305       C  0.48295843  0.87048461  0.70549948     0.20200
C2306       C  0.48213501  0.88574243  0.67756221     0.22800
C2307       C  0.49956992  0.89475311  0.66210173    -0.39200
C2308       C  0.51785336  0.88728427  0.67665881     0.21600
N2309       N  0.53797964  0.86734848  0.71284771    -0.32500
C2310       C  0.54940303  0.87975239  0.69004955    -0.10000
C2311       C  0.53735522  0.89245358  0.66722568    -0.28800
N2312       N  0.46296723  0.89017782  0.66847242    -0.45400
C2313       C  0.45141626  0.87771895  0.69083774    -0.04700
C2314       C  0.46336673  0.86516663  0.71428533    -0.22100
H2315       H  0.50190913  0.85101912  0.74182445     0.19700
H2316       H  0.49894683  0.90664893  0.64018006     0.18500
H2317       H  0.54222043  0.90373940  0.64610290     0.14800
H2318       H  0.45838779  0.85377847  0.73508741     0.14700
H2319       H  0.54301653  0.85627968  0.73247322     0.32800
H2320       H  0.45804797  0.90110487  0.64843696     0.35600
C2321       C  0.64109544  0.01891303  0.75180193     0.21200
C2322       C  0.65252739  0.00351606  0.73418279    -0.38700
C2323       C  0.64182585  0.98612865  0.72310509     0.20200
C2324       C  0.62126614  0.98435732  0.72859812     0.22800
C2325       C  0.60992614  0.99956308  0.74704912    -0.39200
C2326       C  0.62066641  0.01683628  0.75860976     0.21600
N2327       N  0.64757605  0.03713616  0.76386211    -0.32500
C2328       C  0.63122122  0.04661944  0.77900423    -0.10000
C2329       C  0.61417656  0.03438037  0.77650783    -0.28800
N2330       N  0.61469268  0.96625865  0.71604123    -0.45400
C2331       C  0.63122712  0.95624764  0.70327416    -0.04700
C2332       C  0.64845787  0.96812686  0.70730111    -0.22100
H2333       H  0.66857566  0.00494095  0.72957231     0.19700
H2334       H  0.59392138  0.99803787  0.75210198     0.18500
H2335       H  0.59895582  0.03814123  0.78513198     0.14800
H2336       H  0.66383475  0.96385679  0.70100263     0.14700
H2337       H  0.66216994  0.04286817  0.76153458     0.32800
H2338       H  0.60007455  0.96058063  0.71833376     0.35600
C2339       C  0.73163776  0.87712098  0.62118961     0.21200
C2340       C  0.74450667  0.87748465  0.58822949    -0.38700
C2341       C  0.76502275  0.87602679  0.59677671     0.20200
C2342       C  0.77211615  0.87401782  0.63522471     0.22800
C2343       C  0.75924164  0.87407606  0.66833017    -0.39200
C2344       C  0.73868268  0.87585797  0.65980872     0.21600
N2345       N  0.71153201  0.87763320  0.62067592    -0.32500
C2346       C  0.70564448  0.87697521  0.65914803    -0.10000
C2347       C  0.72212566  0.87608519  0.68467479    -0.28800
N2348       N  0.79222296  0.87252713  0.63529797    -0.45400
C2349       C  0.79794698  0.87401300  0.59675450    -0.04700
C2350       C  0.78142923  0.87626226  0.57177684    -0.22100
H2351       H  0.73892957  0.87872793  0.55813334     0.19700
H2352       H  0.76481624  0.87274778  0.69841078     0.18500
H2353       H  0.72197942  0.87504889  0.71675467     0.14800
H2354       H  0.78144339  0.87788391  0.53978861     0.14700
H2355       H  0.70230675  0.87835442  0.59560309     0.32800
H2356       H  0.80154071  0.87115013  0.66011810     0.35600
C2357       C  0.63178003  0.76850771  0.17349555     0.21200
C2358       C  0.63988704  0.75088950  0.15690586    -0.38700
C2359       C  0.63293977  0.73271873  0.17317523     0.20200
C2360       C  0.61901336  0.73209511  0.20373177     0.22800
C2361       C  0.61091138  0.74974053  0.22039186    -0.39200
C2362       C  0.61783630  0.76794440  0.20403041     0.21600
N2363       N  0.63573209  0.78762371  0.16282949    -0.32500
C2364       C  0.62422318  0.79937223  0.18669866    -0.10000
C2365       C  0.61285616  0.78763134  0.21283183    -0.28800
N2366       N  0.61452188  0.71290510  0.21318889    -0.45400
C2367       C  0.62560284  0.70126291  0.18828576    -0.04700
C2368       C  0.63733271  0.71310019  0.16305146    -0.22100
H2369       H  0.65066180  0.75129366  0.13280709     0.19700
H2370       H  0.59989311  0.74932630  0.24405552     0.18500
H2371       H  0.60230814  0.79280654  0.23510721     0.14800
H2372       H  0.64745171  0.70802201  0.13992514     0.14700
H2373       H  0.64559595  0.79237867  0.14054647     0.32800
H2374       H  0.60430053  0.70804163  0.23473196     0.35600
C2375       C  0.51775105  0.87592976  0.19531671     0.21200
C2376       C  0.50051348  0.86892801  0.21477519    -0.38700
C2377       C  0.48224292  0.87581593  0.19954604     0.20200
C2378       C  0.48115350  0.88876851  0.16742473     0.22800
C2379       C  0.49847500  0.89585406  0.14793773    -0.39200
C2380       C  0.51685077  0.88892711  0.16323254     0.21600
N2381       N  0.53684239  0.87154110  0.20435235    -0.32500
C2382       C  0.54832612  0.88187916  0.17811868    -0.10000
C2383       C  0.53642437  0.89293210  0.15185370    -0.28800
N2384       N  0.46187895  0.89288270  0.15863336    -0.45400
C2385       C  0.45075008  0.88235664  0.18529891    -0.04700
C2386       C  0.46292565  0.87158543  0.21130431    -0.22100
H2387       H  0.50128057  0.85879447  0.23989147     0.19700
H2388       H  0.49770073  0.90597078  0.12280271     0.18500
H2389       H  0.54140432  0.90262132  0.12794671     0.14800
H2390       H  0.45825518  0.86187255  0.23542571     0.14700
H2391       H  0.54176706  0.86226617  0.22741130     0.32800
H2392       H  0.45662896  0.90206939  0.13572794     0.35600
C2393       C  0.62460658  0.86944839  0.89835638     0.21200
C2394       C  0.61982373  0.85892915  0.93315289    -0.38700
C2395       C  0.62125858  0.87004456  0.96846363     0.20200
C2396       C  0.62666116  0.89021828  0.96912749     0.22800
C2397       C  0.63177373  0.90066611  0.93431014    -0.39200
C2398       C  0.63069862  0.88942581  0.89898773     0.21600
N2399       N  0.62416416  0.86232430  0.86101139    -0.32500
C2400       C  0.63035308  0.87776207  0.83774355    -0.10000
C2401       C  0.63467591  0.89489837  0.86030005    -0.28800
N2402       N  0.62710788  0.89723793  0.00664669    -0.45400
C2403       C  0.62237434  0.88126240  0.02989621    -0.04700
C2404       C  0.61864089  0.86407129  0.00717913    -0.22100
H2405       H  0.61547864  0.84319497  0.93279583     0.19700
H2406       H  0.63640274  0.91631726  0.93472142     0.18500
H2407       H  0.63943874  0.90953882  0.84966477     0.14800
H2408       H  0.61499722  0.84909299  0.01770967     0.14700
H2409       H  0.61986747  0.84788534  0.85187482     0.32800
H2410       H  0.63128859  0.91167783  0.01596915     0.35600
C2411       C  0.61673810  0.87810011  0.39695016     0.21200
C2412       C  0.60479343  0.88166386  0.43064200    -0.38700
C2413       C  0.61507124  0.88208366  0.46701023     0.20200
C2414       C  0.63557800  0.87872694  0.46951218     0.22800
C2415       C  0.64754335  0.87545106  0.43583991    -0.39200
C2416       C  0.63734837  0.87547120  0.39948945     0.21600
N2417       N  0.61070679  0.87740497  0.35892003    -0.32500
C2418       C  0.62766767  0.87475706  0.33718962    -0.10000
C2419       C  0.64458681  0.87348207  0.36138274    -0.28800
N2420       N  0.64161710  0.87888472  0.50748100    -0.45400
C2421       C  0.62494048  0.88270636  0.52932624    -0.04700
C2422       C  0.60806302  0.88494307  0.50522151    -0.22100
H2423       H  0.58872325  0.88400055  0.42866224     0.19700
H2424       H  0.66361804  0.87313115  0.43780627     0.18500
H2425       H  0.66007938  0.87158830  0.35226322     0.14800
H2426       H  0.59267534  0.88738008  0.51451003     0.14700
H2427       H  0.59607904  0.87931539  0.34829348     0.32800
H2428       H  0.65615788  0.87629401  0.51800519     0.35600
C2429       C  0.63767932  0.01505154  0.27796610     0.21200
C2430       C  0.64971577  0.99846886  0.26759212    -0.38700
C2431       C  0.63980762  0.98251910  0.24825736     0.20200
C2432       C  0.61950603  0.98312901  0.23937359     0.22800
C2433       C  0.60737160  0.99955868  0.25048670    -0.39200
C2434       C  0.61723029  0.01541747  0.27038596     0.21600
N2435       N  0.64379932  0.03267743  0.29373698    -0.32500
C2436       C  0.62712498  0.04432235  0.29679313    -0.10000
C2437       C  0.61019467  0.03397354  0.28295111    -0.28800
N2438       N  0.61376858  0.96614092  0.22046840    -0.45400
C2439       C  0.63046160  0.95446366  0.21798834    -0.04700
C2440       C  0.64698138  0.96419357  0.23506237    -0.22100
H2441       H  0.66569010  0.99811918  0.27368021     0.19700
H2442       H  0.59147723  0.00007441  0.24368943     0.18500
H2443       H  0.59512013  0.03983499  0.27953132     0.14800
H2444       H  0.66210491  0.95841630  0.23821687     0.14700
H2445       H  0.65856749  0.03687352  0.30040281     0.32800
H2446       H  0.59922706  0.96234826  0.21138082     0.35600
C2447       C  0.72951100  0.87398459  0.11681355     0.21200
C2448       C  0.74275412  0.87335565  0.08431836    -0.38700
C2449       C  0.76327175  0.87465664  0.09362970     0.20200
C2450       C  0.77002597  0.87599656  0.13244407     0.22800
C2451       C  0.75677455  0.87697324  0.16488569    -0.39200
C2452       C  0.73624673  0.87610761  0.15550568     0.21600
N2453       N  0.70935290  0.87304634  0.11581285    -0.32500
C2454       C  0.70316434  0.87494289  0.15401266    -0.10000
C2455       C  0.71949679  0.87699804  0.17969911    -0.28800
N2456       N  0.79019428  0.87646225  0.13351970    -0.45400
C2457       C  0.79634682  0.87582492  0.09514778    -0.04700
C2458       C  0.78000050  0.87480566  0.06928412    -0.22100
H2459       H  0.73746038  0.87203544  0.05402455     0.19700
H2460       H  0.76206493  0.87837633  0.19516883     0.18500
H2461       H  0.71915394  0.87868936  0.21167862     0.14800
H2462       H  0.78033700  0.87394982  0.03718031     0.14700
H2463       H  0.70031512  0.87153710  0.09060320     0.32800
H2464       H  0.79925679  0.87744453  0.15879539     0.35600
loop_ 
_geom_bond_atom_site_label_1 
_geom_bond_atom_site_label_2 
_geom_bond_distance 
_geom_bond_site_symmetry_2 
_ccdc_geom_bond_type 
O1           C17   1.275       .  A
O1           Zn7   2.031       .  S
C2           O18   1.274       .  A
C2           O15   1.279       .  A
C2         C2403   1.467       .  S
O3           C16   1.276       .  A
O3          Cd10   2.081       .  S
O4           C22   1.279       .  A
O4          Cd13   2.099       .  S
O5           C19   1.273       .  A
O5           Cd9   2.052       .  S
O6           C17   1.275       .  A
O6           Cd9   2.073       .  S
Zn7          O18   2.001       .  S
Zn7          O20   2.017       .  S
Zn7          O12   1.922       .  S
O8           C19   1.276       .  A
O8          Cd13   2.087       .  S
Cd9          O11   2.060       .  S
Cd9          O12   1.982       .  S
Cd10         O14   2.075       .  S
Cd10         O23   2.073       .  S
Cd10         O12   1.992       .  S
O11          C21   1.273       .  A
O12         Cd13   2.001       .  S
Cd13         O15   2.093       .  S
O14          C21   1.276       .  A
C16          O20   1.273       .  A
C16        C2454   1.471       .  S
C17        C2364   1.475       .  S
C19        C2382   1.469       .  S
C21        C2418   1.465       .  S
C22          O23   1.276       .  A
C22        C2439   1.478       .  S
O24          C40   1.275       .  A
O24         Zn30   2.030       .  S
C25          O41   1.270       .  A
C25          O38   1.277       .  A
C25        C2421   1.465       .  S
O26          C39   1.274       .  A
O26         Cd33   2.084       .  S
O27          C45   1.277       .  A
O27         Cd36   2.092       .  S
O28          C42   1.276       .  A
O28         Cd32   2.084       .  S
O29          C40   1.275       .  A
O29         Cd32   2.069       .  S
Zn30         O41   1.989       .  S
Zn30         O43   1.992       .  S
Zn30         O35   1.936       .  S
O31          C42   1.275       .  A
O31         Cd36   2.074       .  S
Cd32         O34   2.071       .  S
Cd32         O35   1.999       .  S
Cd33         O37   2.069       .  S
Cd33         O46   2.062       .  S
Cd33         O35   2.008       .  S
O34          C44   1.275       .  A
O35         Cd36   2.007       .  S
Cd36         O38   2.092       .  S
O37          C44   1.274       .  A
C39          O43   1.270       .  A
C39        C2346   1.464       .  S
C40        C2292   1.474       .  S
C42        C2310   1.477       .  S
C44        C2400   1.467       .  S
C45          O46   1.273       .  A
C45        C2331   1.470       .  S
O47          C63   1.274       .  A
O47         Zn53   2.024       .  S
C48          O64   1.272       .  A
C48          O61   1.277       .  A
C48        C2256   1.466       .  S
O49          C62   1.276       .  A
O49         Cd56   2.085       .  S
O50          C68   1.276       .  A
O50         Cd59   2.083       .  S
O51          C65   1.275       .  A
O51         Cd55   2.075       .  S
O52          C63   1.274       .  A
O52         Cd55   2.066       .  S
Zn53         O64   1.994       .  S
Zn53         O66   2.013       .  S
Zn53         O58   1.929       .  S
O54          C65   1.276       .  A
O54         Cd59   2.082       .  S
Cd55         O57   2.073   1_554  S
Cd55         O58   1.993       .  S
Cd56         O60   2.073   1_554  S
Cd56         O69   2.062       .  S
Cd56         O58   1.999       .  S
O57          C67   1.275       .  A
O58         Cd59   2.005       .  S
Cd59         O61   2.096       .  S
O60          C67   1.275       .  A
C62          O66   1.273       .  A
C62        C2457   1.469       .  S
C63        C2202   1.471       .  S
C65        C2220   1.475       .  S
C67        C2241   1.470       .  S
C68          O69   1.274       .  A
C68        C2274   1.469       .  S
O70          C86   1.273       .  A
O70         Zn76   2.019       .  S
C71          O87   1.271       .  A
C71          O84   1.278       .  A
C71        C2238   1.469       .  S
O72          C85   1.276       .  A
O72         Cd79   2.077       .  S
O73          C91   1.277       .  A
O73         Cd82   2.091       .  S
O74          C88   1.276       .  A
O74         Cd78   2.068       .  S
O75          C86   1.274       .  A
O75         Cd78   2.073       .  S
Zn76         O87   2.000       .  S
Zn76         O89   2.002       .  S
Zn76         O81   1.927       .  S
O77          C88   1.276       .  A
O77         Cd82   2.076       .  S
Cd78         O80   2.073       .  S
Cd78         O81   1.991       .  S
Cd79         O83   2.077       .  S
Cd79         O92   2.070       .  S
Cd79         O81   1.999       .  S
O80          C90   1.276       .  A
O81         Cd82   1.998       .  S
Cd82         O84   2.100       .  S
O83          C90   1.275       .  A
C85          O89   1.272       .  A
C85        C2349   1.464       .  S
C86        C2148   1.473       .  S
C88        C2166   1.471       .  S
C90        C2259   1.470       .  S
C91          O92   1.274       .  A
C91        C2184   1.471       .  S
O93         C109   1.274       .  A
O93         Zn99   2.011       .  S
C94         O110   1.272       .  A
C94         O107   1.277       .  A
C94        C2112   1.467       .  S
O95         C108   1.277       .  A
O95        Cd102   2.085       .  S
O96         C114   1.276       .  A
O96        Cd105   2.069       .  S
O97         C111   1.273       .  A
O97        Cd101   2.052       .  S
O98         C109   1.274       .  A
O98        Cd101   2.067       .  S
Zn99        O110   1.998       .  S
Zn99        O112   2.003       .  S
Zn99        O104   1.914       .  S
O100        C111   1.275       .  A
O100       Cd105   2.077       .  S
Cd101       O103   2.061       .  S
Cd101       O104   1.977       .  S
Cd102       O106   2.089       .  S
Cd102       O115   2.085       .  S
Cd102       O104   1.996       .  S
O103        C113   1.273       .  A
O104       Cd105   1.993       .  S
Cd105       O107   2.089       .  S
O106        C113   1.277       .  A
C108        O112   1.272       .  A
C108       C2130   1.466       .  S
C109       C2076   1.468       .  S
C111       C2061   1.467       .  S
C113       C2094   1.467       .  S
C114        O115   1.278       .  A
C114       C2187   1.471       .  S
O116        C132   1.276       .  A
O116       Zn122   2.040       .  S
C117        O133   1.271       .  A
C117        O130   1.277       .  A
C117       C2097   1.466       .  S
O118        C131   1.274       .  A
O118       Cd125   2.083       .  S
O119        C137   1.276       .  A
O119       Cd128   2.089       .  S
O120        C134   1.276       .  A
O120       Cd124   2.080       .  S
O121        C132   1.274       .  A
O121       Cd124   2.070       .  S
Zn122       O133   1.990       .  S
Zn122       O135   2.003       .  S
Zn122       O127   1.935       .  S
O123        C134   1.273       .  A
O123       Cd128   2.062       .  S
Cd124       O126   2.067   1_556  S
Cd124       O127   1.995       .  S
Cd125       O129   2.068   1_556  S
Cd125       O138   2.059       .  S
Cd125       O127   2.005       .  S
O126        C136   1.275       .  A
O127       Cd128   2.010       .  S
Cd128       O130   2.088       .  S
O129        C136   1.274       .  A
C131        O135   1.272       .  A
C131       C2040   1.466       .  S
C132       C2022   1.477       .  S
C134       C2004   1.471       .  S
C136       C2115   1.464       .  S
C137        O138   1.273       .  A
C137       C2277   1.469       .  S
O139        C155   1.275       .  A
O139       Zn145   2.040       .  S
C140        O156   1.272       .  A
C140        O153   1.278       .  A
C140       C1971   1.467       .  S
O141        C154   1.276       .  A
O141       Cd148   2.092       .  S
O142        C160   1.278       .  A
O142       Cd151   2.101       .  S
O143        C157   1.275       .  A
O143       Cd147   2.080       .  S
O144        C155   1.274       .  A
O144       Cd147   2.069       .  S
Zn145       O156   1.996       .  S
Zn145       O158   1.993       .  S
Zn145       O150   1.939       .  S
O146        C157   1.275       .  A
O146       Cd151   2.070       .  S
Cd147       O149   2.069       .  S
Cd147       O150   1.998       .  S
Cd148       O152   2.076       .  S
Cd148       O161   2.078       .  S
Cd148       O150   2.012       .  S
O149        C159   1.276       .  A
O150       Cd151   2.007       .  S
Cd151       O153   2.092       .  S
O152        C159   1.275       .  A
C154        O158   1.270       .  A
C154       C2133   1.468       .  S
C155       C1953   1.477       .  S
C157       C1932   1.473       .  S
C159       C1986   1.469       .  S
C160        O161   1.275       .  A
C160       C2436   1.477       .  S
O162        C178   1.275       .  A
O162       Zn168   2.025       .  S
C163        O179   1.273       .  A
C163        O176   1.277       .  A
C163       C1989   1.466       .  S
O164        C177   1.276       .  A
O164       Cd171   2.074       .  S
O165        C183   1.277       .  A
O165       Cd174   2.081       .  S
O166        C180   1.276       .  A
O166       Cd170   2.067       .  S
O167        C178   1.276       .  A
O167       Cd170   2.081       .  S
Zn168       O179   2.000       .  S
Zn168       O181   2.011       .  S
Zn168       O173   1.917       .  S
O169        C180   1.276       .  A
O169       Cd174   2.079       .  S
Cd170       O172   2.071       .  S
Cd170       O173   1.978       .  S
Cd171       O175   2.083       .  S
Cd171       O184   2.077       .  S
Cd171       O173   1.991       .  S
O172        C182   1.276       .  A
O173       Cd174   1.994       .  S
Cd174       O176   2.091       .  S
O175        C182   1.277       .  A
C177        O181   1.273       .  A
C177       C2043   1.468       .  S
C178       C1914   1.475       .  S
C180       C1896   1.472       .  S
C182       C1968   1.469       .  S
C183        O184   1.275       .  A
C183       C2328   1.473       .  S
O185        C201   1.271       .  A
O185       Zn191   1.987       .  S
C186        O202   1.274       .  A
C186        O199   1.274       .  A
C186       C1806   1.472       .  S
O187        C200   1.275       .  A
O187       Cd194   2.084       .  S
O188        C206   1.274       .  A
O188       Cd197   2.062   1_556  S
O189        C203   1.273       .  A
O189       Cd193   2.063       .  S
O190        C201   1.275       .  A
O190       Cd193   2.085       .  S
Zn191       O202   2.026       .  S
Zn191       O204   1.992       .  S
Zn191       O196   1.933       .  S
O192        C203   1.276       .  A
O192       Cd197   2.082       .  S
Cd193       O195   2.084       .  S
Cd193       O196   2.004       .  S
Cd194       O198   2.065       .  S
Cd194       O207   2.071   1_554  S
Cd194       O196   2.005       .  S
O195        C205   1.277       .  A
O196       Cd197   1.995       .  S
Cd197       O199   2.065       .  S
O198        C205   1.273       .  A
C200        O204   1.270       .  A
C200       C1881   1.463       .  S
C201       C1842   1.462       .  S
C203       C2223   1.472       .  S
C205       C1860   1.469       .  S
C206        O207   1.274       .  A
C206       C1827   1.464       .  S
O208        C224   1.273       .  A
O208       Zn214   2.007       .  S
C209        O225   1.273       .  A
C209        O222   1.275       .  A
C209       C1752   1.471       .  S
O210        C223   1.277       .  A
O210       Cd217   2.094       .  S
O211        C229   1.274       .  A
O211       Cd220   2.068       .  S
O212        C226   1.278       .  A
O212       Cd216   2.094       .  S
O213        C224   1.276       .  A
O213       Cd216   2.082       .  S
Zn214       O225   2.014       .  S
Zn214       O227   2.003       .  S
Zn214       O219   1.919       .  S
O215        C226   1.273       .  A
O215       Cd220   2.054       .  S
Cd216       O218   2.088       .  S
Cd216       O219   2.003       .  S
Cd217       O221   2.073       .  S
Cd217       O230   2.076       .  S
Cd217       O219   1.993       .  S
O218        C228   1.277       .  A
O219       Cd220   1.982       .  S
Cd220       O222   2.075       .  S
O221        C228   1.276       .  A
C223        O227   1.272       .  A
C223       C1788   1.469       .  S
C224       C1824   1.466       .  S
C226       C2169   1.472       .  S
C228       C1770   1.472       .  S
C229        O230   1.276       .  A
C229       C1845   1.468       .  S
O231        C247   1.272       .  A
O231       Zn237   1.999       .  S
C232        O248   1.274       .  A
C232        O245   1.273       .  A
C232       C1680   1.473       .  S
O233        C246   1.276       .  A
O233       Cd240   2.077       .  S
O234        C252   1.274       .  A
O234       Cd243   2.059       .  S
O235        C249   1.275       .  A
O235       Cd239   2.072       .  S
O236        C247   1.277       .  A
O236       Cd239   2.094       .  S
Zn237       O248   2.028       .  S
Zn237       O250   1.998       .  S
Zn237       O242   1.922       .  S
O238        C249   1.275       .  A
O238       Cd243   2.062       .  S
Cd239       O241   2.086       .  S
Cd239       O242   1.998       .  S
Cd240       O244   2.064       .  S
Cd240       O253   2.078       .  S
Cd240       O242   1.995       .  S
O241        C251   1.276       .  A
O242       Cd243   1.985       .  S
Cd243       O245   2.068       .  S
O244        C251   1.273       .  A
C246        O250   1.272       .  A
C246       C1878   1.465       .  S
C247       C1698   1.469       .  S
C249       C2385   1.467       .  S
C251       C1734   1.471       .  S
C252        O253   1.276       .  A
C252       C1716   1.466       .  S
O254        C270   1.272       .  A
O254       Zn260   2.002       .  S
C255        O271   1.273       .  A
C255        O268   1.274       .  A
C255       C1644   1.471       .  S
O256        C269   1.278       .  A
O256       Cd263   2.093       .  S
O257        C275   1.275       .  A
O257       Cd266   2.066       .  S
O258        C272   1.277       .  A
O258       Cd262   2.086       .  S
O259        C270   1.276       .  A
O259       Cd262   2.089       .  S
Zn260       O271   2.018       .  S
Zn260       O273   2.001       .  S
Zn260       O265   1.933       .  S
O261        C272   1.276       .  A
O261       Cd266   2.080       .  S
Cd262       O264   2.083       .  S
Cd262       O265   1.998       .  S
Cd263       O267   2.074       .  S
Cd263       O276   2.087       .  S
Cd263       O265   2.006       .  S
O264        C274   1.276       .  A
O265       Cd266   1.994       .  S
Cd266       O268   2.069       .  S
O267        C274   1.275       .  A
C269        O273   1.271       .  A
C269       C1791   1.470       .  S
C270       C1719   1.465       .  S
C272       C2313   1.478       .  S
C274       C1662   1.471       .  S
C275        O276   1.277       .  A
C275       C1701   1.469       .  S
O277        C293   1.273       .  A
O277       Zn283   2.001       .  S
C278        O294   1.276       .  A
C278        O291   1.272       .  A
C278       C1572   1.473       .  S
O279        C292   1.276       .  A
O279       Cd286   2.089       .  S
O280        C298   1.274       .  A
O280       Cd289   2.061       .  S
O281        C295   1.274       .  A
O281       Cd285   2.067       .  S
O282        C293   1.277       .  A
O282       Cd285   2.091       .  S
Zn283       O294   2.042       .  S
Zn283       O296   2.000       .  S
Zn283       O288   1.936       .  S
O284        C295   1.274       .  A
O284       Cd289   2.070       .  S
Cd285       O287   2.094       .  S
Cd285       O288   2.005       .  S
Cd286       O290   2.069       .  S
Cd286       O299   2.079       .  S
Cd286       O288   2.006       .  S
O287        C297   1.278       .  A
O288       Cd289   1.995       .  S
Cd289       O291   2.055       .  S
O290        C297   1.274       .  A
C292        O296   1.271       .  A
C292       C1626   1.468       .  S
C293       C1593   1.467       .  S
C295       C1935   1.470       .  S
C297       C1737   1.473       .  S
C298        O299   1.276       .  A
C298       C1608   1.467       .  S
O300        C316   1.271       .  A
O300       Zn306   1.990       .  S
C301        O317   1.273       .  A
C301        O314   1.276       .  A
C301       C1539   1.474       .  S
O302        C315   1.276       .  A
O302       Cd309   2.085       .  S
O303        C321   1.275       .  A
O303       Cd312   2.065       .  S
O304        C318   1.277       .  A
O304       Cd308   2.087       .  S
O305        C316   1.278       .  A
O305       Cd308   2.089       .  S
Zn306       O317   2.009       .  S
Zn306       O319   2.008       .  S
Zn306       O311   1.907       .  S
O307        C318   1.275       .  A
O307       Cd312   2.065       .  S
Cd308       O310   2.083       .  S
Cd308       O311   1.989       .  S
Cd309       O313   2.075       .  S
Cd309       O322   2.082       .  S
Cd309       O311   1.988       .  S
O310        C320   1.277       .  A
O311       Cd312   1.974       .  S
Cd312       O314   2.086       .  S
O313        C320   1.276       .  A
C315        O319   1.272       .  A
C315       C1554   1.466       .  S
C316       C1611   1.462       .  S
C318       C1899   1.473       .  S
C320       C1665   1.472       .  S
C321        O322   1.277       .  A
C321       C1590   1.468       .  S
O323        C339   1.274       .  A
O323       Zn329   2.007       .  S
C324        O340   1.275       .  A
C324        O337   1.275       .  A
C324       C1482   1.473       .  S
O325        C338   1.278       .  A
O325       Cd332   2.094       .  S
O326        C344   1.273       .  A
O326       Cd335   2.062       .  S
O327        C341   1.278       .  A
O327       Cd331   2.098       .  S
O328        C339   1.277       .  A
O328       Cd331   2.086       .  S
Zn329       O340   2.028       .  S
Zn329       O342   2.016       .  S
Zn329       O334   1.922       .  S
O330        C341   1.273       .  A
O330       Cd335   2.049       .  S
Cd331       O333   2.089       .  S
Cd331       O334   1.999       .  S
Cd332       O336   2.086       .  S
Cd332       O345   2.077       .  S
Cd332       O334   1.991       .  S
O333        C343   1.278       .  A
O334       Cd335   1.977       .  S
Cd335       O337   2.073       .  S
O336        C343   1.277       .  A
C338        O342   1.274       .  A
C338       C1629   1.474       .  S
C339       C1518   1.464       .  S
C341       C2058   1.472       .  S
C343       C1773   1.474       .  S
C344        O345   1.276       .  A
C344       C1503   1.463       .  S
O346        C362   1.272       .  A
O346       Zn352   1.995       .  S
C347        O363   1.275       .  A
C347        O360   1.274       .  A
C347       C1464   1.474       .  S
O348        C361   1.276       .  A
O348       Cd355   2.090       .  S
O349        C367   1.274       .  A
O349       Cd358   2.064   1_554  S
O350        C364   1.275       .  A
O350       Cd354   2.074       .  S
O351        C362   1.278       .  A
O351       Cd354   2.099       .  S
Zn352       O363   2.033       .  S
Zn352       O365   1.997       .  S
Zn352       O357   1.932       .  S
O353        C364   1.274       .  A
O353       Cd358   2.067       .  S
Cd354       O356   2.092       .  S
Cd354       O357   2.013       .  S
Cd355       O359   2.059       .  S
Cd355       O368   2.085   1_556  S
Cd355       O357   2.009       .  S
O356        C366   1.278       .  A
O357       Cd358   1.993       .  S
Cd358       O360   2.065       .  S
O359        C366   1.273       .  A
C361        O365   1.271       .  A
C361       C1557   1.471       .  S
C362       C1500   1.470       .  S
C364       C2007   1.471       .  S
C366       C1863   1.469       .  S
C367        O368   1.276       .  A
C367       C1521   1.472       .  S
O369        C385   1.273       .  A
O369       Zn375   2.009       .  S
C370        O386   1.275       .  A
C370        O383   1.273       .  A
C370       C2079   1.472       .  S
O371        C384   1.277       .  A
O371       Cd378   2.090       .  S
O372        C390   1.275       .  A
O372       Cd381   2.070       .  S
O373        C387   1.275       .  A
O373       Cd377   2.070       .  S
O374        C385   1.277       .  A
O374       Cd377   2.091       .  S
Zn375       O386   2.032       .  S
Zn375       O388   2.011       .  S
Zn375       O380   1.933       .  S
O376        C387   1.275       .  A
O376       Cd381   2.069       .  S
Cd377       O379   2.086       .  S
Cd377       O380   2.004       .  S
Cd378       O382   2.070       .  S
Cd378       O391   2.088       .  S
Cd378       O380   2.003       .  S
O379        C389   1.276       .  A
O380       Cd381   1.996       .  S
Cd381       O383   2.065       .  S
O382        C389   1.274       .  A
C384        O388   1.273       .  A
C384       C1428   1.472       .  S
C385       C1410   1.472       .  S
C387       C1374   1.469       .  S
C389       C1446   1.473       .  S
C390        O391   1.277       .  A
C390       C1395   1.472       .  S
O392        C408   1.272       .  A
O392       Zn398   2.002       .  S
C393        O409   1.276       .  A
C393        O406   1.275       .  A
C393       C2025   1.477       .  S
O394        C407   1.277       .  A
O394       Cd401   2.079       .  S
O395        C413   1.276       .  A
O395       Cd404   2.071   1_554  S
O396        C410   1.275       .  A
O396       Cd400   2.065       .  S
O397        C408   1.277       .  A
O397       Cd400   2.092       .  S
Zn398       O409   2.035       .  S
Zn398       O411   2.013       .  S
Zn398       O403   1.926       .  S
O399        C410   1.277       .  A
O399       Cd404   2.079       .  S
Cd400       O402   2.081       .  S
Cd400       O403   1.994       .  S
Cd401       O405   2.065       .  S
Cd401       O414   2.079   1_556  S
Cd401       O403   1.996       .  S
O402        C412   1.275       .  A
O403       Cd404   1.991       .  S
Cd404       O406   2.074       .  S
O405        C412   1.273       .  A
C407        O411   1.273       .  A
C407       C1341   1.469       .  S
C408       C1392   1.468       .  S
C410       C1320   1.471       .  S
C412       C1356   1.469       .  S
C413        O414   1.276       .  A
C413       C1413   1.466       .  S
O415        C431   1.272       .  A
O415       Zn421   2.006       .  S
C416        O432   1.274       .  A
C416        O429   1.273       .  A
C416       C2205   1.471       .  S
O417        C430   1.276       .  A
O417       Cd424   2.080       .  S
O418        C436   1.274       .  A
O418       Cd427   2.067   1_556  S
O419        C433   1.276       .  A
O419       Cd423   2.074       .  S
O420        C431   1.278       .  A
O420       Cd423   2.099       .  S
Zn421       O432   2.025       .  S
Zn421       O434   2.012       .  S
Zn421       O426   1.932       .  S
O422        C433   1.275       .  A
O422       Cd427   2.065       .  S
Cd423       O425   2.084       .  S
Cd423       O426   2.001       .  S
Cd424       O428   2.067       .  S
Cd424       O437   2.080   1_554  S
Cd424       O426   1.999       .  S
O425        C435   1.277       .  A
O426       Cd427   1.993       .  S
Cd427       O429   2.063       .  S
O428        C435   1.273       .  A
C430        O434   1.274       .  A
C430       C1302   1.468       .  S
C431       C1287   1.471       .  S
C433       C1248   1.469       .  S
C435       C1359   1.471       .  S
C436        O437   1.276       .  A
C436       C1266   1.470       .  S
O438        C454   1.271       .  A
O438       Zn444   1.993       .  S
C439        O455   1.273       .  A
C439        O452   1.272       .  A
C439       C2151   1.471       .  S
O440        C453   1.277       .  A
O440       Cd447   2.081       .  S
O441        C459   1.274       .  A
O441       Cd450   2.065       .  S
O442        C456   1.275       .  A
O442       Cd446   2.070       .  S
O443        C454   1.278       .  A
O443       Cd446   2.098       .  S
Zn444       O455   2.022       .  S
Zn444       O457   2.000       .  S
Zn444       O449   1.927       .  S
O445        C456   1.275       .  A
O445       Cd450   2.063       .  S
Cd446       O448   2.091       .  S
Cd446       O449   2.000       .  S
Cd447       O451   2.078       .  S
Cd447       O460   2.083       .  S
Cd447       O449   1.998       .  S
O448        C458   1.277       .  A
O449       Cd450   1.987       .  S
Cd450       O452   2.064       .  S
O451        C458   1.275       .  A
C453        O457   1.272       .  A
C453       C1230   1.463       .  S
C454       C1269   1.467       .  S
C456       C1212   1.467       .  S
C458       C1449   1.475       .  S
C459        O460   1.276       .  A
C459       C1284   1.469       .  S
O461        C477   1.274       .  A
O461       Zn467   2.016       .  S
C462        O478   1.275       .  A
C462        O475   1.276       .  A
C462       C2367   1.474       .  S
O463        C476   1.274       .  A
O463       Cd470   2.072       .  S
O464        C482   1.274       .  A
O464       Cd473   2.069       .  S
O465        C479   1.276       .  A
O465       Cd469   2.084       .  S
O466        C477   1.277       .  A
O466       Cd469   2.094       .  S
Zn467       O478   2.021       .  S
Zn467       O480   2.016       .  S
Zn467       O472   1.916       .  S
O468        C479   1.274       .  A
O468       Cd473   2.058       .  S
Cd469       O471   2.072       .  S
Cd469       O472   1.996       .  S
Cd470       O474   2.075       .  S
Cd470       O483   2.080       .  S
Cd470       O472   1.997       .  S
O471        C481   1.276       .  A
O472       Cd473   1.984       .  S
Cd473       O475   2.079       .  S
O474        C481   1.275       .  A
C476        O480   1.274       .  A
C476       C1305   1.466       .  S
C477       C1161   1.472       .  S
C479       C1143   1.470       .  S
C481       C1197   1.466       .  S
C482        O483   1.276       .  A
C482       C1179   1.468       .  S
O484        C500   1.271       .  A
O484       Zn490   1.993       .  S
C485        O501   1.276       .  A
C485        O498   1.276       .  A
C485       C2295   1.476       .  S
O486        C499   1.274       .  A
O486       Cd493   2.074       .  S
O487        C505   1.276       .  A
O487       Cd496   2.080       .  S
O488        C502   1.272       .  A
O488       Cd492   2.051       .  S
O489        C500   1.275       .  A
O489       Cd492   2.081       .  S
Zn490       O501   2.036       .  S
Zn490       O503   1.990       .  S
Zn490       O495   1.933       .  S
O491        C502   1.275       .  A
O491       Cd496   2.077       .  S
Cd492       O494   2.072       .  S
Cd492       O495   2.001       .  S
Cd493       O497   2.061       .  S
Cd493       O506   2.075       .  S
Cd493       O495   2.002       .  S
O494        C504   1.274       .  A
O495       Cd496   1.994       .  S
Cd496       O498   2.074       .  S
O497        C504   1.273       .  A
C499        O503   1.270       .  A
C499       C1233   1.462       .  S
C500       C1176   1.462       .  S
C502       C1107   1.467       .  S
C504       C1122   1.465       .  S
C505        O506   1.275       .  A
C505       C1158   1.473       .  S
O507        C523   1.273       .  A
O507       Zn513   2.007       .  S
C508        O524   1.274       .  A
C508        O521   1.278       .  A
C508       C1950   1.476       .  S
O509        C522   1.276       .  A
O509       Cd516   2.077       .  S
O510        C528   1.276       .  A
O510       Cd519   2.080       .  S
O511        C525   1.275       .  A
O511       Cd515   2.068       .  S
O512        C523   1.274       .  A
O512       Cd515   2.075       .  S
Zn513       O524   2.014       .  S
Zn513       O526   2.013       .  S
Zn513       O518   1.917       .  S
O514        C525   1.276       .  A
O514       Cd519   2.069       .  S
Cd515       O517   2.073       .  S
Cd515       O518   1.988       .  S
Cd516       O520   2.074       .  S
Cd516       O529   2.085       .  S
Cd516       O518   1.989       .  S
O517        C527   1.276       .  A
O518       Cd519   1.983       .  S
Cd519       O521   2.092       .  S
O520        C527   1.275       .  A
C522        O526   1.273       .  A
C522       C1431   1.466       .  S
C523       C1068   1.462       .  S
C525       C1053   1.468       .  S
C527       C1194   1.468       .  S
C528        O529   1.277       .  A
C528       C1086   1.471       .  S
O530        C546   1.273       .  A
O530       Zn536   2.007       .  S
C531        O547   1.277       .  A
C531        O544   1.273       .  A
C531       C1917   1.473       .  S
O532        C545   1.274       .  A
O532       Cd539   2.084       .  S
O533        C551   1.274       .  A
O533       Cd542   2.062       .  S
O534        C548   1.273       .  A
O534       Cd538   2.065       .  S
O535        C546   1.277       .  A
O535       Cd538   2.087       .  S
Zn536       O547   2.042       .  S
Zn536       O549   2.003       .  S
Zn536       O541   1.933       .  S
O537        C548   1.274       .  A
O537       Cd542   2.073       .  S
Cd538       O540   2.084       .  S
Cd538       O541   2.004       .  S
Cd539       O543   2.058       .  S
Cd539       O552   2.066       .  S
Cd539       O541   2.006       .  S
O540        C550   1.276       .  A
O541       Cd542   1.994       .  S
Cd542       O544   2.057       .  S
O543        C550   1.273       .  A
C545        O549   1.272       .  A
C545       C1338   1.467       .  S
C546       C1089   1.470       .  S
C548       C1035   1.470       .  S
C550       C1125   1.468       .  S
C551        O552   1.274       .  A
C551       C1071   1.464       .  S
O553        C569   1.275       .  A
O553       Zn559   2.033       .  S
C554        O570   1.272       .  A
C554        O567   1.276       .  A
C554        C981   1.468       .  S
O555        C568   1.275       .  A
O555       Cd562   2.086       .  S
O556        C574   1.277       .  A
O556       Cd565   2.088       .  S
O557        C571   1.274       .  A
O557       Cd561   2.072       .  S
O558        C569   1.274       .  A
O558       Cd561   2.062       .  S
Zn559       O570   1.996       .  S
Zn559       O572   1.999       .  S
Zn559       O564   1.935       .  S
O560        C571   1.274       .  A
O560       Cd565   2.067       .  S
Cd561       O563   2.065   1_554  S
Cd561       O564   1.995       .  S
Cd562       O566   2.075   1_554  S
Cd562       O575   2.062       .  S
Cd562       O564   2.008       .  S
O563        C573   1.274       .  A
O564       Cd565   2.009       .  S
Cd565       O567   2.091       .  S
O566        C573   1.275       .  A
C568        O572   1.271       .  A
C568        C999   1.467       .  S
C569       C1809   1.472       .  S
C571       C1251   1.470       .  S
C573        C960   1.468       .  S
C574        O575   1.274       .  A
C574       C1014   1.470       .  S
O576        C592   1.275       .  A
O576       Zn582   2.023       .  S
C577        O593   1.274       .  A
C577        O590   1.275       .  A
C577        C963   1.464       .  S
O578        C591   1.276       .  A
O578       Cd585   2.082       .  S
O579        C597   1.274       .  A
O579       Cd588   2.071       .  S
O580        C594   1.274       .  A
O580       Cd584   2.060       .  S
O581        C592   1.275       .  A
O581       Cd584   2.068       .  S
Zn582       O593   2.014       .  S
Zn582       O595   2.016       .  S
Zn582       O587   1.925       .  S
O583        C594   1.274       .  A
O583       Cd588   2.071       .  S
Cd584       O586   2.062       .  S
Cd584       O587   1.980       .  S
Cd585       O589   2.089       .  S
Cd585       O598   2.073       .  S
Cd585       O587   1.995       .  S
O586        C596   1.274       .  A
O587       Cd588   1.994       .  S
Cd588       O590   2.079       .  S
O589        C596   1.277       .  A
C591        O595   1.274       .  A
C591        C927   1.473       .  S
C592       C1755   1.471       .  S
C594       C1215   1.468       .  S
C596        C978   1.469       .  S
C597        O598   1.276       .  A
C597        C942   1.468       .  S
O599        C615   1.275       .  A
O599       Zn605   2.027       .  S
C600        O616   1.273       .  A
C600        O613   1.277       .  A
C600        C888   1.467       .  S
O601        C614   1.277       .  A
O601       Cd608   2.089       .  S
O602        C620   1.276       .  A
O602       Cd611   2.081       .  S
O603        C617   1.274       .  A
O603       Cd607   2.062       .  S
O604        C615   1.272       .  A
O604       Cd607   2.056       .  S
Zn605       O616   2.007       .  S
Zn605       O618   2.015       .  S
Zn605       O610   1.930       .  S
O606        C617   1.275       .  A
O606       Cd611   2.075       .  S
Cd607       O609   2.066       .  S
Cd607       O610   1.990       .  S
Cd608       O612   2.078       .  S
Cd608       O621   2.066       .  S
Cd608       O610   1.998       .  S
O609        C619   1.274       .  A
O610       Cd611   2.000       .  S
Cd611       O613   2.092       .  S
O612        C619   1.276       .  A
C614        O618   1.274       .  A
C614        C909   1.473       .  S
C615       C1485   1.470       .  S
C617       C1377   1.469       .  S
C619        C870   1.467       .  S
C620        O621   1.274       .  A
C620        C945   1.468       .  S
O622        C638   1.274       .  A
O622       Zn628   2.024       .  S
C623        O639   1.272       .  A
C623        O636   1.278       .  A
C623        C873   1.466       .  S
O624        C637   1.276       .  A
O624       Cd631   2.088       .  S
O625        C643   1.276       .  A
O625       Cd634   2.089       .  S
O626        C640   1.275       .  A
O626       Cd630   2.064       .  S
O627        C638   1.274       .  A
O627       Cd630   2.075       .  S
Zn628       O639   1.997       .  S
Zn628       O641   2.011       .  S
Zn628       O633   1.925       .  S
O629        C640   1.276       .  A
O629       Cd634   2.078       .  S
Cd630       O632   2.064   1_556  S
Cd630       O633   1.990       .  S
Cd631       O635   2.078   1_556  S
Cd631       O644   2.071       .  S
Cd631       O633   1.999       .  S
O632        C642   1.275       .  A
O633       Cd634   2.002       .  S
Cd634       O636   2.093       .  S
O635        C642   1.276       .  A
C637        O641   1.273       .  A
C637        C855   1.469       .  S
C638       C1467   1.475       .  S
C640       C1323   1.470       .  S
C642        C891   1.468       .  S
C643        O644   1.274       .  A
C643       C1017   1.472       .  S
O645        C661   1.275       .  A
O645       Zn651   2.023       .  S
C646        O662   1.274       .  A
C646        O659   1.278       .  A
C646        C798   1.475       .  S
O647        C660   1.276       .  A
O647       Cd654   2.085       .  S
O648        C666   1.277       .  A
O648       Cd657   2.083       .  S
O649        C663   1.274       .  A
O649       Cd653   2.065       .  S
O650        C661   1.273       .  A
O650       Cd653   2.065       .  S
Zn651       O662   2.015       .  S
Zn651       O664   2.019       .  S
Zn651       O656   1.927       .  S
O652        C663   1.275       .  A
O652       Cd657   2.074       .  S
Cd653       O655   2.065       .  S
Cd653       O656   1.993       .  S
Cd654       O658   2.082       .  S
Cd654       O667   2.066       .  S
Cd654       O656   1.999       .  S
O655        C665   1.274       .  A
O656       Cd657   2.004       .  S
Cd657       O659   2.099       .  S
O658        C665   1.276       .  A
C660        O664   1.274       .  A
C660        C906   1.470       .  S
C661       C1575   1.471       .  S
C663       C1050   1.469       .  S
C665        C816   1.472       .  S
C666        O667   1.275       .  A
C666        C834   1.467       .  S
O668        C684   1.277       .  A
O668       Zn674   2.048       .  S
C669        O685   1.273       .  A
C669        O682   1.277       .  A
C669        C819   1.461       .  S
O670        C683   1.280       .  A
O670       Cd677   2.101       .  S
O671        C689   1.276       .  A
O671       Cd680   2.087       .  S
O672        C686   1.274       .  A
O672       Cd676   2.063       .  S
O673        C684   1.272       .  A
O673       Cd676   2.065       .  S
Zn674       O685   2.004       .  S
Zn674       O687   2.016       .  S
Zn674       O679   1.934       .  S
O675        C686   1.276       .  A
O675       Cd680   2.080       .  S
Cd676       O678   2.058       .  S
Cd676       O679   1.987       .  S
Cd677       O681   2.097       .  S
Cd677       O690   2.077       .  S
Cd677       O679   2.002       .  S
O678        C688   1.274       .  A
O679       Cd680   1.998       .  S
Cd680       O682   2.085       .  S
O681        C688   1.279       .  A
C683        O687   1.274       .  A
C683        C852   1.476       .  S
C684       C1536   1.477       .  S
C686       C1032   1.471       .  S
C688        C801   1.469       .  S
C689        O690   1.274       .  A
C689        C780   1.474       .  S
O691        C707   1.274       .  A
O691       Zn697   2.016       .  S
C692        O708   1.272       .  A
C692        O705   1.276       .  A
C692        C744   1.465       .  S
O693        C706   1.276       .  A
O693       Cd700   2.075       .  S
O694        C712   1.274       .  A
O694       Cd703   2.065       .  S
O695        C709   1.275       .  A
O695       Cd699   2.062       .  S
O696        C707   1.277       .  A
O696       Cd699   2.081       .  S
Zn697       O708   2.005       .  S
Zn697       O710   2.019       .  S
Zn697       O702   1.919       .  S
O698        C709   1.273       .  A
O698       Cd703   2.065       .  S
Cd699       O701   2.069       .  S
Cd699       O702   1.979       .  S
Cd700       O704   2.083       .  S
Cd700       O713   2.076       .  S
Cd700       O702   1.991       .  S
O701        C711   1.274       .  A
O702       Cd703   1.987       .  S
Cd703       O705   2.083       .  S
O704        C711   1.277       .  A
C706        O710   1.274       .  A
C706        C996   1.468       .  S
C707       C1683   1.473       .  S
C709       C1140   1.467       .  S
C711        C762   1.468       .  S
C712        O713   1.275       .  A
C712        C837   1.467       .  S
O714        C730   1.276       .  A
O714       Zn720   2.037       .  S
C715        O731   1.271       .  A
C715        O728   1.275       .  A
C715        C765   1.464       .  S
O716        C729   1.275       .  A
O716       Cd723   2.087       .  S
O717        C735   1.276       .  A
O717       Cd726   2.083       .  S
O718        C732   1.275       .  A
O718       Cd722   2.070       .  S
O719        C730   1.273       .  A
O719       Cd722   2.063       .  S
Zn720       O731   1.994       .  S
Zn720       O733   2.003       .  S
Zn720       O725   1.936       .  S
O721        C732   1.273       .  A
O721       Cd726   2.064       .  S
Cd722       O724   2.065       .  S
Cd722       O725   1.995       .  S
Cd723       O727   2.083       .  S
Cd723       O736   2.065       .  S
Cd723       O725   2.004       .  S
O724        C734   1.274       .  A
O725       Cd726   2.010       .  S
Cd726       O728   2.084       .  S
O727        C734   1.276       .  A
C729        O733   1.271       .  A
C729        C924   1.467       .  S
C730       C1647   1.473       .  S
C732       C1104   1.468       .  S
C734        C747   1.471       .  S
C735        O736   1.274       .  A
C735        C783   1.470       .  S
C737        C742   1.385       .  A
C737        C738   1.403       .  A
C737        N743   1.342   1_556  A
C738        C739   1.402       .  A
C738        H749   1.082       .  S
C739        C748   1.378       .  A
C739        C740   1.385       .  A
C740        C741   1.404       .  A
C740        N746   1.344       .  A
C741        C742   1.403       .  A
C741        H750   1.082       .  S
C742        C745   1.379   1_556  A
N743        C744   1.355       .  A
N743        H753   1.045       .  S
C744        C745   1.394       .  A
C745        H751   1.082       .  S
N746        C747   1.355       .  A
N746        H754   1.045       .  S
C747        C748   1.396       .  A
C748        H752   1.082       .  S
C755        C760   1.384       .  A
C755        C756   1.406       .  A
C755        N761   1.343       .  A
C756        C757   1.403       .  A
C756        H767   1.082       .  S
C757        C766   1.383       .  A
C757        C758   1.385       .  A
C758        C759   1.402       .  A
C758        N764   1.339       .  A
C759        C760   1.399       .  A
C759        H768   1.082       .  S
C760        C763   1.378       .  A
N761        C762   1.356       .  A
N761        H771   1.045       .  S
C762        C763   1.393       .  A
C763        H769   1.082       .  S
N764        C765   1.354       .  A
N764        H772   1.045       .  S
C765        C766   1.395       .  A
C766        H770   1.082       .  S
C773        C778   1.384       .  A
C773        C774   1.404       .  A
C773        N779   1.345       .  A
C774        C775   1.403       .  A
C774        H785   1.082       .  S
C775        C784   1.377       .  A
C775        C776   1.385       .  A
C776        C777   1.405       .  A
C776        N782   1.345       .  A
C777        C778   1.405       .  A
C777        H786   1.082       .  S
C778        C781   1.380       .  A
N779        C780   1.356       .  A
N779        H789   1.045       .  S
C780        C781   1.396       .  A
C781        H787   1.082       .  S
N782        C783   1.356       .  A
N782        H790   1.045       .  S
C783        C784   1.395       .  A
C784        H788   1.082       .  S
C791        C796   1.384       .  A
C791        C792   1.403       .  A
C791        N797   1.342       .  A
C792        C793   1.401       .  A
C792        H803   1.082       .  S
C793        C802   1.377       .  A
C793        C794   1.384       .  A
C794        C795   1.408       .  A
C794        N800   1.347       .  A
C795        C796   1.407       .  A
C795        H804   1.082       .  S
C796        C799   1.385       .  A
N797        C798   1.355       .  A
N797        H807   1.045       .  S
C798        C799   1.398       .  A
C799        H805   1.082       .  S
N800        C801   1.357       .  A
N800        H808   1.045       .  S
C801        C802   1.393       .  A
C802        H806   1.082       .  S
C809        C814   1.385       .  A
C809        C810   1.402       .  A
C809        N815   1.342       .  A
C810        C811   1.401       .  A
C810        H821   1.082       .  S
C811        C820   1.375   1_554  A
C811        C812   1.385       .  A
C812        C813   1.404       .  A
C812        N818   1.344   1_554  A
C813        C814   1.404       .  A
C813        H822   1.082       .  S
C814        C817   1.379       .  A
N815        C816   1.356       .  A
N815        H825   1.045       .  S
C816        C817   1.396       .  A
C817        H823   1.082       .  S
N818        C819   1.355       .  A
N818        H826   1.045       .  S
C819        C820   1.392       .  A
C820        H824   1.082       .  S
C827        C832   1.385       .  A
C827        C828   1.405       .  A
C827        N833   1.345       .  A
C828        C829   1.405       .  A
C828        H839   1.082       .  S
C829        C838   1.378       .  A
C829        C830   1.385       .  A
C830        C831   1.401       .  A
C830        N836   1.343       .  A
C831        C832   1.400       .  A
C831        H840   1.082       .  S
C832        C835   1.375       .  A
N833        C834   1.356       .  A
N833        H843   1.045       .  S
C834        C835   1.393       .  A
C835        H841   1.082       .  S
N836        C837   1.354       .  A
N836        H844   1.045       .  S
C837        C838   1.396       .  A
C838        H842   1.082       .  S
C845        C850   1.385       .  A
C845        C846   1.403       .  A
C845        N851   1.345       .  A
C846        C847   1.402       .  A
C846        H857   1.082       .  S
C847        C856   1.376       .  A
C847        C848   1.385       .  A
C848        C849   1.406       .  A
C848        N854   1.347       .  A
C849        C850   1.406       .  A
C849        H858   1.082       .  S
C850        C853   1.380       .  A
N851        C852   1.355       .  A
N851        H861   1.044       .  S
C852        C853   1.399       .  A
C853        H859   1.083       .  S
N854        C855   1.356       .  A
N854        H862   1.045       .  S
C855        C856   1.394       .  A
C856        H860   1.083       .  S
C863        C868   1.385       .  A
C863        C864   1.404       .  A
C863        N869   1.343       .  A
C864        C865   1.403       .  A
C864        H875   1.082       .  S
C865        C874   1.381       .  A
C865        C866   1.385       .  A
C866        C867   1.403       .  A
C866        N872   1.341       .  A
C867        C868   1.401       .  A
C867        H876   1.082       .  S
C868        C871   1.378       .  A
N869        C870   1.355       .  A
N869        H879   1.045       .  S
C870        C871   1.394       .  A
C871        H877   1.082       .  S
N872        C873   1.355       .  A
N872        H880   1.045       .  S
C873        C874   1.394       .  A
C874        H878   1.082       .  S
C881        C886   1.385       .  A
C881        C882   1.402       .  A
C881        N887   1.341       .  A
C882        C883   1.400       .  A
C882        H893   1.082       .  S
C883        C892   1.376       .  A
C883        C884   1.385       .  A
C884        C885   1.405       .  A
C884        N890   1.345       .  A
C885        C886   1.404       .  A
C885        H894   1.082       .  S
C886        C889   1.382       .  A
N887        C888   1.354       .  A
N887        H897   1.045       .  S
C888        C889   1.395       .  A
C889        H895   1.082       .  S
N890        C891   1.356       .  A
N890        H898   1.045       .  S
C891        C892   1.393       .  A
C892        H896   1.082       .  S
C899        C904   1.385       .  A
C899        C900   1.405       .  A
C899        N905   1.343       .  A
C900        C901   1.403       .  A
C900        H911   1.082       .  S
C901        C910   1.382       .  A
C901        C902   1.384       .  A
C902        C903   1.405       .  A
C902        N908   1.343       .  A
C903        C904   1.403       .  A
C903        H912   1.082       .  S
C904        C907   1.381       .  A
N905        C906   1.355       .  A
N905        H915   1.045       .  S
C906        C907   1.395       .  A
C907        H913   1.082       .  S
N908        C909   1.356       .  A
N908        H916   1.045       .  S
C909        C910   1.396       .  A
C910        H914   1.082       .  S
C917        C922   1.385       .  A
C917        C918   1.404       .  A
C917        N923   1.346       .  A
C918        C919   1.404       .  A
C918        H929   1.082       .  S
C919        C928   1.377       .  A
C919        C920   1.385       .  A
C920        C921   1.403       .  A
C920        N926   1.345       .  A
C921        C922   1.403       .  A
C921        H930   1.082       .  S
C922        C925   1.375       .  A
N923        C924   1.354       .  A
N923        H933   1.045       .  S
C924        C925   1.394       .  A
C925        H931   1.083       .  S
N926        C927   1.355       .  A
N926        H934   1.045       .  S
C927        C928   1.396       .  A
C928        H932   1.082       .  S
C935        C940   1.385       .  A
C935        C936   1.406       .  A
C935        N941   1.345       .  A
C936        C937   1.406       .  A
C936        H947   1.082       .  S
C937        C946   1.381       .  A
C937        C938   1.385       .  A
C938        C939   1.400       .  A
C938        N944   1.341       .  A
C939        C940   1.399       .  A
C939        H948   1.082       .  S
C940        C943   1.374       .  A
N941        C942   1.357       .  A
N941        H951   1.045       .  S
C942        C943   1.392       .  A
C943        H949   1.082       .  S
N944        C945   1.353       .  A
N944        H952   1.045       .  S
C945        C946   1.397       .  A
C946        H950   1.082       .  S
C953        C958   1.384       .  A
C953        C954   1.405       .  A
C953        N959   1.344       .  A
C954        C955   1.404       .  A
C954        H965   1.082       .  S
C955        C964   1.380       .  A
C955        C956   1.385       .  A
C956        C957   1.401       .  A
C956        N962   1.341       .  A
C957        C958   1.400       .  A
C957        H966   1.082       .  S
C958        C961   1.375       .  A
N959        C960   1.356       .  A
N959        H969   1.045       .  S
C960        C961   1.393       .  A
C961        H967   1.082       .  S
N962        C963   1.354       .  A
N962        H970   1.044       .  S
C963        C964   1.395       .  A
C964        H968   1.082       .  S
C971        C976   1.385       .  A
C971        C972   1.402       .  A
C971        N977   1.345       .  A
C972        C973   1.402       .  A
C972        H983   1.082       .  S
C973        C982   1.374       .  A
C973        C974   1.385       .  A
C974        C975   1.404       .  A
C974        N980   1.347       .  A
C975        C976   1.404       .  A
C975        H984   1.082       .  S
C976        C979   1.376       .  A
N977        C978   1.354       .  A
N977        H987   1.045       .  S
C978        C979   1.395       .  A
C979        H985   1.082       .  S
N980        C981   1.355       .  A
N980        H988   1.045       .  S
C981        C982   1.394       .  A
C982        H986   1.083       .  S
C989        C994   1.384       .  A
C989        C990   1.408       .  A
C989        N995   1.345       .  A
C990        C991   1.406       .  A
C990       H1001   1.082       .  S
C991       C1000   1.385       .  A
C991        C992   1.385       .  A
C992        C993   1.400       .  A
C992        N998   1.338       .  A
C993        C994   1.397       .  A
C993       H1002   1.082       .  S
C994        C997   1.375       .  A
N995        C996   1.358       .  A
N995       H1005   1.045       .  S
C996        C997   1.391       .  A
C997       H1003   1.082       .  S
N998        C999   1.353       .  A
N998       H1006   1.045       .  S
C999       C1000   1.397       .  A
C1000      H1004   1.082       .  S
C1007      C1012   1.384       .  A
C1007      C1008   1.402       .  A
C1007      N1013   1.342       .  A
C1008      C1009   1.401   1_554  A
C1008      H1019   1.082   1_554  S
C1009      C1018   1.377       .  A
C1009      C1010   1.384       .  A
C1010      C1011   1.406   1_556  A
C1010      N1016   1.346       .  A
C1011      C1012   1.405       .  A
C1011      H1020   1.082       .  S
C1012      C1015   1.382       .  A
N1013      C1014   1.355       .  A
N1013      H1023   1.045       .  S
C1014      C1015   1.396       .  A
C1015      H1021   1.082       .  S
N1016      C1017   1.357       .  A
N1016      H1024   1.045       .  S
C1017      C1018   1.395       .  A
C1018      H1022   1.082       .  S
C1025      C1030   1.384       .  A
C1025      C1026   1.404       .  A
C1025      N1031   1.342       .  A
C1026      C1027   1.402       .  A
C1026      H1037   1.082       .  S
C1027      C1036   1.379       .  A
C1027      C1028   1.384       .  A
C1028      C1029   1.403       .  A
C1028      N1034   1.342       .  A
C1029      C1030   1.402       .  A
C1029      H1038   1.082       .  S
C1030      C1033   1.379       .  A
N1031      C1032   1.356       .  A
N1031      H1041   1.045       .  S
C1032      C1033   1.395       .  A
C1033      H1039   1.082       .  S
N1034      C1035   1.355       .  A
N1034      H1042   1.044       .  S
C1035      C1036   1.396       .  A
C1036      H1040   1.082       .  S
C1043      C1048   1.385       .  A
C1043      C1044   1.401       .  A
C1043      N1049   1.341       .  A
C1044      C1045   1.400       .  A
C1044      H1055   1.082       .  S
C1045      C1054   1.375       .  A
C1045      C1046   1.385       .  A
C1046      C1047   1.404       .  A
C1046      N1052   1.343       .  A
C1047      C1048   1.403       .  A
C1047      H1056   1.082       .  S
C1048      C1051   1.378       .  A
N1049      C1050   1.354       .  A
N1049      H1059   1.045       .  S
C1050      C1051   1.396       .  A
C1051      H1057   1.082       .  S
N1052      C1053   1.356       .  A
N1052      H1060   1.044       .  S
C1053      C1054   1.393       .  A
C1054      H1058   1.082       .  S
C1061      C1066   1.385       .  A
C1061      C1062   1.404       .  A
C1061      N1067   1.344       .  A
C1062      C1063   1.403       .  A
C1062      H1073   1.082       .  S
C1063      C1072   1.378       .  A
C1063      C1064   1.385       .  A
C1064      C1065   1.399       .  A
C1064      N1070   1.340       .  A
C1065      C1066   1.399       .  A
C1065      H1074   1.082       .  S
C1066      C1069   1.373       .  A
N1067      C1068   1.355       .  A
N1067      H1077   1.045       .  S
C1068      C1069   1.392       .  A
C1069      H1075   1.083       .  S
N1070      C1071   1.353       .  A
N1070      H1078   1.045       .  S
C1071      C1072   1.395       .  A
C1072      H1076   1.082       .  S
C1079      C1084   1.384       .  A
C1079      C1080   1.407       .  A
C1079      N1085   1.345       .  A
C1080      C1081   1.405       .  A
C1080      H1091   1.082       .  S
C1081      C1090   1.383   1_554  A
C1081      C1082   1.385       .  A
C1082      C1083   1.403       .  A
C1082      N1088   1.342   1_554  A
C1083      C1084   1.401       .  A
C1083      H1092   1.082       .  S
C1084      C1087   1.379       .  A
N1085      C1086   1.357       .  A
N1085      H1095   1.045       .  S
C1086      C1087   1.394       .  A
C1087      H1093   1.082       .  S
N1088      C1089   1.355       .  A
N1088      H1096   1.045       .  S
C1089      C1090   1.396       .  A
C1090      H1094   1.082       .  S
C1097      C1102   1.385       .  A
C1097      C1098   1.402       .  A
C1097      N1103   1.342       .  A
C1098      C1099   1.401       .  A
C1098      H1109   1.082       .  S
C1099      C1108   1.374       .  A
C1099      C1100   1.385       .  A
C1100      C1101   1.402       .  A
C1100      N1106   1.343       .  A
C1101      C1102   1.401       .  A
C1101      H1110   1.082       .  S
C1102      C1105   1.376       .  A
N1103      C1104   1.355       .  A
N1103      H1113   1.045       .  S
C1104      C1105   1.394       .  A
C1105      H1111   1.082       .  S
N1106      C1107   1.354       .  A
N1106      H1114   1.045       .  S
C1107      C1108   1.395       .  A
C1108      H1112   1.083       .  S
C1115      C1120   1.385       .  A
C1115      C1116   1.401       .  A
C1115      N1121   1.342       .  A
C1116      C1117   1.401       .  A
C1116      H1127   1.082       .  S
C1117      C1126   1.375       .  A
C1117      C1118   1.385       .  A
C1118      C1119   1.404       .  A
C1118      N1124   1.344       .  A
C1119      C1120   1.403       .  A
C1119      H1128   1.082       .  S
C1120      C1123   1.378       .  A
N1121      C1122   1.354       .  A
N1121      H1131   1.045       .  S
C1122      C1123   1.395       .  A
C1123      H1129   1.082       .  S
N1124      C1125   1.356       .  A
N1124      H1132   1.045       .  S
C1125      C1126   1.394       .  A
C1126      H1130   1.082       .  S
C1133      C1138   1.384       .  A
C1133      C1134   1.406       .  A
C1133      N1139   1.344       .  A
C1134      C1135   1.405       .  A
C1134      H1145   1.082       .  S
C1135      C1144   1.382       .  A
C1135      C1136   1.385       .  A
C1136      C1137   1.398       .  A
C1136      N1142   1.338       .  A
C1137      C1138   1.397       .  A
C1137      H1146   1.082       .  S
C1138      C1141   1.372       .  A
N1139      C1140   1.357       .  A
N1139      H1149   1.045       .  S
C1140      C1141   1.392       .  A
C1141      H1147   1.083       .  S
N1142      C1143   1.353       .  A
N1142      H1150   1.045       .  S
C1143      C1144   1.398       .  A
C1144      H1148   1.082       .  S
C1151      C1156   1.385       .  A
C1151      C1152   1.401       .  A
C1151      N1157   1.343       .  A
C1152      C1153   1.401       .  A
C1152      H1163   1.082       .  S
C1153      C1162   1.375   1_556  A
C1153      C1154   1.385       .  A
C1154      C1155   1.407       .  A
C1154      N1160   1.348   1_556  A
C1155      C1156   1.407       .  A
C1155      H1164   1.082       .  S
C1156      C1159   1.382       .  A
N1157      C1158   1.354       .  A
N1157      H1167   1.045       .  S
C1158      C1159   1.398       .  A
C1159      H1165   1.082       .  S
N1160      C1161   1.357       .  A
N1160      H1168   1.045       .  S
C1161      C1162   1.393       .  A
C1162      H1166   1.082       .  S
C1169      C1174   1.385       .  A
C1169      C1170   1.402       .  A
C1169      N1175   1.339       .  A
C1170      C1171   1.400       .  A
C1170      H1181   1.082       .  S
C1171      C1180   1.378       .  A
C1171      C1172   1.384       .  A
C1172      C1173   1.405       .  A
C1172      N1178   1.342       .  A
C1173      C1174   1.403       .  A
C1173      H1182   1.082       .  S
C1174      C1177   1.382       .  A
N1175      C1176   1.354       .  A
N1175      H1185   1.045       .  S
C1176      C1177   1.394       .  A
C1177      H1183   1.082       .  S
N1178      C1179   1.356       .  A
N1178      H1186   1.045       .  S
C1179      C1180   1.394       .  A
C1180      H1184   1.082       .  S
C1187      C1192   1.385       .  A
C1187      C1188   1.404       .  A
C1187      N1193   1.343       .  A
C1188      C1189   1.403       .  A
C1188      H1199   1.082       .  S
C1189      C1198   1.380       .  A
C1189      C1190   1.385       .  A
C1190      C1191   1.402       .  A
C1190      N1196   1.341       .  A
C1191      C1192   1.401       .  A
C1191      H1200   1.082       .  S
C1192      C1195   1.378       .  A
N1193      C1194   1.356       .  A
N1193      H1203   1.045       .  S
C1194      C1195   1.394       .  A
C1195      H1201   1.082       .  S
N1196      C1197   1.354       .  A
N1196      H1204   1.045       .  S
C1197      C1198   1.395       .  A
C1198      H1202   1.082       .  S
C1205      C1210   1.385       .  A
C1205      C1206   1.400       .  A
C1205      N1211   1.340       .  A
C1206      C1207   1.399   1_655  A
C1206      H1217   1.082       .  S
C1207      C1216   1.374       .  A
C1207      C1208   1.385       .  A
C1208      C1209   1.404   1_455  A
C1208      N1214   1.343       .  A
C1209      C1210   1.403       .  A
C1209      H1218   1.082       .  S
C1210      C1213   1.378       .  A
N1211      C1212   1.354       .  A
N1211      H1221   1.045       .  S
C1212      C1213   1.396       .  A
C1213      H1219   1.082       .  S
N1214      C1215   1.356       .  A
N1214      H1222   1.045       .  S
C1215      C1216   1.393       .  A
C1216      H1220   1.082       .  S
C1223      C1228   1.386       .  A
C1223      C1224   1.400       .  A
C1223      N1229   1.343       .  A
C1224      C1225   1.401       .  A
C1224      H1235   1.082       .  S
C1225      C1234   1.373       .  A
C1225      C1226   1.386       .  A
C1226      C1227   1.401       .  A
C1226      N1232   1.343       .  A
C1227      C1228   1.402       .  A
C1227      H1236   1.082       .  S
C1228      C1231   1.375       .  A
N1229      C1230   1.353       .  A
N1229      H1239   1.045       .  S
C1230      C1231   1.394       .  A
C1231      H1237   1.083       .  S
N1232      C1233   1.353       .  A
N1232      H1240   1.045       .  S
C1233      C1234   1.394       .  A
C1234      H1238   1.083       .  S
C1241      C1246   1.385       .  A
C1241      C1242   1.402       .  A
C1241      N1247   1.343       .  A
C1242      C1243   1.402   1_655  A
C1242      H1253   1.082       .  S
C1243      C1252   1.376       .  A
C1243      C1244   1.385       .  A
C1244      C1245   1.403       .  A
C1244      N1250   1.343       .  A
C1245      C1246   1.402   1_455  A
C1245      H1254   1.082       .  S
C1246      C1249   1.377       .  A
N1247      C1248   1.355       .  A
N1247      H1257   1.045       .  S
C1248      C1249   1.395       .  A
C1249      H1255   1.082       .  S
N1250      C1251   1.356       .  A
N1250      H1258   1.045       .  S
C1251      C1252   1.395       .  A
C1252      H1256   1.082       .  S
C1259      C1264   1.385       .  A
C1259      C1260   1.402       .  A
C1259      N1265   1.344       .  A
C1260      C1261   1.402       .  A
C1260      H1271   1.082       .  S
C1261      C1270   1.375       .  A
C1261      C1262   1.385       .  A
C1262      C1263   1.404       .  A
C1262      N1268   1.346       .  A
C1263      C1264   1.404       .  A
C1263      H1272   1.082       .  S
C1264      C1267   1.378       .  A
N1265      C1266   1.355       .  A
N1265      H1275   1.045       .  S
C1266      C1267   1.395       .  A
C1267      H1273   1.082       .  S
N1268      C1269   1.355       .  A
N1268      H1276   1.045       .  S
C1269      C1270   1.394       .  A
C1270      H1274   1.083       .  S
C1277      C1282   1.384       .  A
C1277      C1278   1.405       .  A
C1277      N1283   1.344       .  A
C1278      C1279   1.404       .  A
C1278      H1289   1.082       .  S
C1279      C1288   1.382       .  A
C1279      C1280   1.384       .  A
C1280      C1281   1.404       .  A
C1280      N1286   1.342       .  A
C1281      C1282   1.402       .  A
C1281      H1290   1.082       .  S
C1282      C1285   1.379       .  A
N1283      C1284   1.355       .  A
N1283      H1293   1.045       .  S
C1284      C1285   1.395       .  A
C1285      H1291   1.082       .  S
N1286      C1287   1.356       .  A
N1286      H1294   1.045       .  S
C1287      C1288   1.395       .  A
C1288      H1292   1.082       .  S
C1295      C1300   1.385       .  A
C1295      C1296   1.402       .  A
C1295      N1301   1.344       .  A
C1296      C1297   1.402       .  A
C1296      H1307   1.082       .  S
C1297      C1306   1.376       .  A
C1297      C1298   1.385       .  A
C1298      C1299   1.403       .  A
C1298      N1304   1.344       .  A
C1299      C1300   1.403       .  A
C1299      H1308   1.082       .  S
C1300      C1303   1.377       .  A
N1301      C1302   1.354       .  A
N1301      H1311   1.045       .  S
C1302      C1303   1.395       .  A
C1303      H1309   1.083       .  S
N1304      C1305   1.355       .  A
N1304      H1312   1.045       .  S
C1305      C1306   1.394       .  A
C1306      H1310   1.082       .  S
C1313      C1318   1.385       .  A
C1313      C1314   1.401       .  A
C1313      N1319   1.343       .  A
C1314      C1315   1.401   1_655  A
C1314      H1325   1.082       .  S
C1315      C1324   1.374       .  A
C1315      C1316   1.385       .  A
C1316      C1317   1.403   1_455  A
C1316      N1322   1.345       .  A
C1317      C1318   1.403       .  A
C1317      H1326   1.082   1_655  S
C1318      C1321   1.377       .  A
N1319      C1320   1.355       .  A
N1319      H1329   1.045       .  S
C1320      C1321   1.396       .  A
C1321      H1327   1.082       .  S
N1322      C1323   1.356       .  A
N1322      H1330   1.044       .  S
C1323      C1324   1.394       .  A
C1324      H1328   1.082       .  S
C1331      C1336   1.385       .  A
C1331      C1332   1.400       .  A
C1331      N1337   1.338       .  A
C1332      C1333   1.397       .  A
C1332      H1343   1.082       .  S
C1333      C1342   1.376       .  A
C1333      C1334   1.384       .  A
C1334      C1335   1.408       .  A
C1334      N1340   1.344       .  A
C1335      C1336   1.406       .  A
C1335      H1344   1.082       .  S
C1336      C1339   1.386       .  A
N1337      C1338   1.353       .  A
N1337      H1347   1.045       .  S
C1338      C1339   1.397       .  A
C1339      H1345   1.082       .  S
N1340      C1341   1.358       .  A
N1340      H1348   1.045       .  S
C1341      C1342   1.391       .  A
C1342      H1346   1.082       .  S
C1349      C1354   1.385       .  A
C1349      C1350   1.404   1_556  A
C1349      N1355   1.344       .  A
C1350      C1351   1.403       .  A
C1350      H1361   1.082       .  S
C1351      C1360   1.379       .  A
C1351      C1352   1.384       .  A
C1352      C1353   1.404       .  A
C1352      N1358   1.343       .  A
C1353      C1354   1.403   1_554  A
C1353      H1362   1.082       .  S
C1354      C1357   1.378       .  A
N1355      C1356   1.355       .  A
N1355      H1365   1.045       .  S
C1356      C1357   1.395       .  A
C1357      H1363   1.082       .  S
N1358      C1359   1.356       .  A
N1358      H1366   1.045       .  S
C1359      C1360   1.395       .  A
C1360      H1364   1.082       .  S
C1367      C1372   1.385       .  A
C1367      C1368   1.401       .  A
C1367      N1373   1.342       .  A
C1368      C1369   1.401   1_655  A
C1368      H1379   1.082       .  S
C1369      C1378   1.375       .  A
C1369      C1370   1.385       .  A
C1370      C1371   1.403       .  A
C1370      N1376   1.344       .  A
C1371      C1372   1.403   1_455  A
C1371      H1380   1.082       .  S
C1372      C1375   1.377       .  A
N1373      C1374   1.355       .  A
N1373      H1383   1.045       .  S
C1374      C1375   1.395       .  A
C1375      H1381   1.082       .  S
N1376      C1377   1.356       .  A
N1376      H1384   1.045       .  S
C1377      C1378   1.394       .  A
C1378      H1382   1.082       .  S
C1385      C1390   1.385       .  A
C1385      C1386   1.402       .  A
C1385      N1391   1.340       .  A
C1386      C1387   1.400       .  A
C1386      H1397   1.082       .  S
C1387      C1396   1.377       .  A
C1387      C1388   1.384       .  A
C1388      C1389   1.407       .  A
C1388      N1394   1.346       .  A
C1389      C1390   1.406       .  A
C1389      H1398   1.082       .  S
C1390      C1393   1.384       .  A
N1391      C1392   1.354       .  A
N1391      H1401   1.045       .  S
C1392      C1393   1.396       .  A
C1393      H1399   1.082       .  S
N1394      C1395   1.357       .  A
N1394      H1402   1.045       .  S
C1395      C1396   1.394       .  A
C1396      H1400   1.082       .  S
C1403      C1408   1.385       .  A
C1403      C1404   1.401       .  A
C1403      N1409   1.341       .  A
C1404      C1405   1.400       .  A
C1404      H1415   1.082       .  S
C1405      C1414   1.377       .  A
C1405      C1406   1.385       .  A
C1406      C1407   1.407       .  A
C1406      N1412   1.345       .  A
C1407      C1408   1.406       .  A
C1407      H1416   1.082       .  S
C1408      C1411   1.383       .  A
N1409      C1410   1.355       .  A
N1409      H1419   1.045       .  S
C1410      C1411   1.397       .  A
C1411      H1417   1.082       .  S
N1412      C1413   1.356       .  A
N1412      H1420   1.045       .  S
C1413      C1414   1.391       .  A
C1414      H1418   1.082       .  S
C1421      C1426   1.384       .  A
C1421      C1422   1.403       .  A
C1421      N1427   1.342       .  A
C1422      C1423   1.401       .  A
C1422      H1433   1.082       .  S
C1423      C1432   1.378       .  A
C1423      C1424   1.385       .  A
C1424      C1425   1.405       .  A
C1424      N1430   1.343       .  A
C1425      C1426   1.404       .  A
C1425      H1434   1.082       .  S
C1426      C1429   1.382       .  A
N1427      C1428   1.356       .  A
N1427      H1437   1.045       .  S
C1428      C1429   1.396       .  A
C1429      H1435   1.082       .  S
N1430      C1431   1.356       .  A
N1430      H1438   1.045       .  S
C1431      C1432   1.393       .  A
C1432      H1436   1.082       .  S
C1439      C1444   1.384       .  A
C1439      C1440   1.404       .  A
C1439      N1445   1.343       .  A
C1440      C1441   1.403       .  A
C1440      H1451   1.082       .  S
C1441      C1450   1.379       .  A
C1441      C1442   1.384       .  A
C1442      C1443   1.407       .  A
C1442      N1448   1.346       .  A
C1443      C1444   1.406       .  A
C1443      H1452   1.082       .  S
C1444      C1447   1.383       .  A
N1445      C1446   1.355       .  A
N1445      H1455   1.045       .  S
C1446      C1447   1.397       .  A
C1447      H1453   1.082       .  S
N1448      C1449   1.357       .  A
N1448      H1456   1.045       .  S
C1449      C1450   1.395       .  A
C1450      H1454   1.082       .  S
C1457      C1462   1.384       .  A
C1457      C1458   1.405       .  A
C1457      N1463   1.345       .  A
C1458      C1459   1.404       .  A
C1458      H1469   1.082       .  S
C1459      C1468   1.379       .  A
C1459      C1460   1.384       .  A
C1460      C1461   1.403       .  A
C1460      N1466   1.344       .  A
C1461      C1462   1.403       .  A
C1461      H1470   1.082       .  S
C1462      C1465   1.377       .  A
N1463      C1464   1.356       .  A
N1463      H1473   1.045       .  S
C1464      C1465   1.396       .  A
C1465      H1471   1.082       .  S
N1466      C1467   1.356       .  A
N1466      H1474   1.045       .  S
C1467      C1468   1.396       .  A
C1468      H1472   1.082       .  S
C1475      C1480   1.384       .  A
C1475      C1476   1.404       .  A
C1475      N1481   1.343       .  A
C1476      C1477   1.402       .  A
C1476      H1487   1.082       .  S
C1477      C1486   1.379       .  A
C1477      C1478   1.384       .  A
C1478      C1479   1.403       .  A
C1478      N1484   1.342       .  A
C1479      C1480   1.402       .  A
C1479      H1488   1.082       .  S
C1480      C1483   1.379       .  A
N1481      C1482   1.356       .  A
N1481      H1491   1.045       .  S
C1482      C1483   1.396       .  A
C1483      H1489   1.082       .  S
N1484      C1485   1.356       .  A
N1484      H1492   1.045       .  S
C1485      C1486   1.395       .  A
C1486      H1490   1.082       .  S
C1493      C1498   1.384       .  A
C1493      C1494   1.402       .  A
C1493      N1499   1.339       .  A
C1494      C1495   1.399       .  A
C1494      H1505   1.082       .  S
C1495      C1504   1.378       .  A
C1495      C1496   1.385       .  A
C1496      C1497   1.406       .  A
C1496      N1502   1.342       .  A
C1497      C1498   1.404       .  A
C1497      H1506   1.082       .  S
C1498      C1501   1.384       .  A
N1499      C1500   1.355       .  A
N1499      H1509   1.045       .  S
C1500      C1501   1.396       .  A
C1501      H1507   1.082       .  S
N1502      C1503   1.355       .  A
N1502      H1510   1.045       .  S
C1503      C1504   1.392       .  A
C1504      H1508   1.082       .  S
C1511      C1516   1.385       .  A
C1511      C1512   1.401       .  A
C1511      N1517   1.341       .  A
C1512      C1513   1.401       .  A
C1512      H1523   1.082       .  S
C1513      C1522   1.376       .  A
C1513      C1514   1.384       .  A
C1514      C1515   1.406       .  A
C1514      N1520   1.345       .  A
C1515      C1516   1.405       .  A
C1515      H1524   1.082       .  S
C1516      C1519   1.381       .  A
N1517      C1518   1.353       .  A
N1517      H1527   1.045       .  S
C1518      C1519   1.395       .  A
C1519      H1525   1.082       .  S
N1520      C1521   1.356       .  A
N1520      H1528   1.045       .  S
C1521      C1522   1.395       .  A
C1522      H1526   1.082       .  S
C1529      C1534   1.384       .  A
C1529      C1530   1.407       .  A
C1529      N1535   1.344       .  A
C1530      C1531   1.405       .  A
C1530      H1541   1.082       .  S
C1531      C1540   1.383       .  A
C1531      C1532   1.384       .  A
C1532      C1533   1.404       .  A
C1532      N1538   1.342       .  A
C1533      C1534   1.402       .  A
C1533      H1542   1.082       .  S
C1534      C1537   1.381       .  A
N1535      C1536   1.358       .  A
N1535      H1545   1.044       .  S
C1536      C1537   1.396       .  A
C1537      H1543   1.082       .  S
N1538      C1539   1.356       .  A
N1538      H1546   1.044       .  S
C1539      C1540   1.397       .  A
C1540      H1544   1.082       .  S
C1547      C1552   1.385       .  A
C1547      C1548   1.406       .  A
C1547      N1553   1.343       .  A
C1548      C1549   1.404       .  A
C1548      H1559   1.082       .  S
C1549      C1558   1.383       .  A
C1549      C1550   1.384       .  A
C1550      C1551   1.402       .  A
C1550      N1556   1.340       .  A
C1551      C1552   1.400       .  A
C1551      H1560   1.082       .  S
C1552      C1555   1.379       .  A
N1553      C1554   1.356       .  A
N1553      H1563   1.045       .  S
C1554      C1555   1.392       .  A
C1555      H1561   1.082       .  S
N1556      C1557   1.355       .  A
N1556      H1564   1.045       .  S
C1557      C1558   1.396       .  A
C1558      H1562   1.082       .  S
C1565      C1570   1.385       .  A
C1565      C1566   1.404       .  A
C1565      N1571   1.345       .  A
C1566      C1567   1.403       .  A
C1566      H1577   1.082       .  S
C1567      C1576   1.378       .  A
C1567      C1568   1.385       .  A
C1568      C1569   1.402       .  A
C1568      N1574   1.343       .  A
C1569      C1570   1.402       .  A
C1569      H1578   1.082       .  S
C1570      C1573   1.375       .  A
N1571      C1572   1.356       .  A
N1571      H1581   1.045       .  S
C1572      C1573   1.396       .  A
C1573      H1579   1.083       .  S
N1574      C1575   1.355       .  A
N1574      H1582   1.045       .  S
C1575      C1576   1.395       .  A
C1576      H1580   1.082       .  S
C1583      C1588   1.385       .  A
C1583      C1584   1.401       .  A
C1583      N1589   1.343       .  A
C1584      C1585   1.401       .  A
C1584      H1595   1.082       .  S
C1585      C1594   1.373       .  A
C1585      C1586   1.385       .  A
C1586      C1587   1.405       .  A
C1586      N1592   1.347       .  A
C1587      C1588   1.405       .  A
C1587      H1596   1.082       .  S
C1588      C1591   1.377       .  A
N1589      C1590   1.354       .  A
N1589      H1599   1.045       .  S
C1590      C1591   1.396       .  A
C1591      H1597   1.082       .  S
N1592      C1593   1.356       .  A
N1592      H1600   1.045       .  S
C1593      C1594   1.392       .  A
C1594      H1598   1.083       .  S
C1601      C1606   1.385       .  A
C1601      C1602   1.404       .  A
C1601      N1607   1.343       .  A
C1602      C1603   1.402       .  A
C1602      H1613   1.082       .  S
C1603      C1612   1.379   1_554  A
C1603      C1604   1.385       .  A
C1604      C1605   1.401       .  A
C1604      N1610   1.340   1_554  A
C1605      C1606   1.400       .  A
C1605      H1614   1.083       .  S
C1606      C1609   1.376       .  A
N1607      C1608   1.355       .  A
N1607      H1617   1.045       .  S
C1608      C1609   1.394       .  A
C1609      H1615   1.083       .  S
N1610      C1611   1.354       .  A
N1610      H1618   1.045       .  S
C1611      C1612   1.393       .  A
C1612      H1616   1.082       .  S
C1619      C1624   1.384       .  A
C1619      C1620   1.404       .  A
C1619      N1625   1.341       .  A
C1620      C1621   1.402       .  A
C1620      H1631   1.082       .  S
C1621      C1630   1.381       .  A
C1621      C1622   1.384       .  A
C1622      C1623   1.406       .  A
C1622      N1628   1.344       .  A
C1623      C1624   1.404       .  A
C1623      H1632   1.082       .  S
C1624      C1627   1.383       .  A
N1625      C1626   1.355       .  A
N1625      H1635   1.045       .  S
C1626      C1627   1.394       .  A
C1627      H1633   1.082       .  S
N1628      C1629   1.357       .  A
N1628      H1636   1.045       .  S
C1629      C1630   1.395       .  A
C1630      H1634   1.082       .  S
C1637      C1642   1.384       .  A
C1637      C1638   1.405       .  A
C1637      N1643   1.344       .  A
C1638      C1639   1.404       .  A
C1638      H1649   1.082       .  S
C1639      C1648   1.381       .  A
C1639      C1640   1.384       .  A
C1640      C1641   1.402       .  A
C1640      N1646   1.342       .  A
C1641      C1642   1.401       .  A
C1641      H1650   1.082       .  S
C1642      C1645   1.376       .  A
N1643      C1644   1.357       .  A
N1643      H1653   1.045       .  S
C1644      C1645   1.394       .  A
C1645      H1651   1.082       .  S
N1646      C1647   1.356       .  A
N1646      H1654   1.044       .  S
C1647      C1648   1.396       .  A
C1648      H1652   1.082       .  S
C1655      C1660   1.385       .  A
C1655      C1656   1.405       .  A
C1655      N1661   1.344       .  A
C1656      C1657   1.404   1_565  A
C1656      H1667   1.082       .  S
C1657      C1666   1.380       .  A
C1657      C1658   1.384       .  A
C1658      C1659   1.404       .  A
C1658      N1664   1.344       .  A
C1659      C1660   1.403   1_545  A
C1659      H1668   1.082       .  S
C1660      C1663   1.379       .  A
N1661      C1662   1.356       .  A
N1661      H1671   1.045       .  S
C1662      C1663   1.395       .  A
C1663      H1669   1.082       .  S
N1664      C1665   1.356       .  A
N1664      H1672   1.045       .  S
C1665      C1666   1.396       .  A
C1666      H1670   1.082       .  S
C1673      C1678   1.384       .  A
C1673      C1674   1.404       .  A
C1673      N1679   1.343       .  A
C1674      C1675   1.402       .  A
C1674      H1685   1.082       .  S
C1675      C1684   1.379       .  A
C1675      C1676   1.384       .  A
C1676      C1677   1.404       .  A
C1676      N1682   1.343       .  A
C1677      C1678   1.403       .  A
C1677      H1686   1.082       .  S
C1678      C1681   1.379       .  A
N1679      C1680   1.356       .  A
N1679      H1689   1.045       .  S
C1680      C1681   1.396       .  A
C1681      H1687   1.082       .  S
N1682      C1683   1.356       .  A
N1682      H1690   1.045       .  S
C1683      C1684   1.395       .  A
C1684      H1688   1.082       .  S
C1691      C1696   1.385       .  A
C1691      C1692   1.400       .  A
C1691      N1697   1.339   1_556  A
C1692      C1693   1.398       .  A
C1692      H1703   1.082       .  S
C1693      C1702   1.375       .  A
C1693      C1694   1.384       .  A
C1694      C1695   1.408       .  A
C1694      N1700   1.346       .  A
C1695      C1696   1.407       .  A
C1695      H1704   1.082       .  S
C1696      C1699   1.384   1_556  A
N1697      C1698   1.354       .  A
N1697      H1707   1.045       .  S
C1698      C1699   1.397       .  A
C1699      H1705   1.082       .  S
N1700      C1701   1.357       .  A
N1700      H1708   1.045       .  S
C1701      C1702   1.392       .  A
C1702      H1706   1.082       .  S
C1709      C1714   1.385       .  A
C1709      C1710   1.405       .  A
C1709      N1715   1.344       .  A
C1710      C1711   1.404       .  A
C1710      H1721   1.082       .  S
C1711      C1720   1.380       .  A
C1711      C1712   1.385       .  A
C1712      C1713   1.402       .  A
C1712      N1718   1.341       .  A
C1713      C1714   1.400       .  A
C1713      H1722   1.082       .  S
C1714      C1717   1.376       .  A
N1715      C1716   1.355       .  A
N1715      H1725   1.045       .  S
C1716      C1717   1.393       .  A
C1717      H1723   1.082       .  S
N1718      C1719   1.354       .  A
N1718      H1726   1.045       .  S
C1719      C1720   1.395       .  A
C1720      H1724   1.082       .  S
C1727      C1732   1.384       .  A
C1727      C1728   1.405   1_565  A
C1727      N1733   1.346       .  A
C1728      C1729   1.405       .  A
C1728      H1739   1.082       .  S
C1729      C1738   1.381       .  A
C1729      C1730   1.384       .  A
C1730      C1731   1.403       .  A
C1730      N1736   1.344       .  A
C1731      C1732   1.402   1_545  A
C1731      H1740   1.082       .  S
C1732      C1735   1.377       .  A
N1733      C1734   1.356       .  A
N1733      H1743   1.045       .  S
C1734      C1735   1.395       .  A
C1735      H1741   1.082       .  S
N1736      C1737   1.356       .  A
N1736      H1744   1.045       .  S
C1737      C1738   1.396       .  A
C1738      H1742   1.082       .  S
C1745      C1750   1.384       .  A
C1745      C1746   1.404       .  A
C1745      N1751   1.343       .  A
C1746      C1747   1.403       .  A
C1746      H1757   1.082       .  S
C1747      C1756   1.379       .  A
C1747      C1748   1.385       .  A
C1748      C1749   1.402       .  A
C1748      N1754   1.342       .  A
C1749      C1750   1.401       .  A
C1749      H1758   1.082       .  S
C1750      C1753   1.377       .  A
N1751      C1752   1.356       .  A
N1751      H1761   1.045       .  S
C1752      C1753   1.394       .  A
C1753      H1759   1.082       .  S
N1754      C1755   1.355       .  A
N1754      H1762   1.045       .  S
C1755      C1756   1.396       .  A
C1756      H1760   1.082       .  S
C1763      C1768   1.385       .  A
C1763      C1764   1.407   1_565  A
C1763      N1769   1.348       .  A
C1764      C1765   1.407       .  A
C1764      H1775   1.082       .  S
C1765      C1774   1.382       .  A
C1765      C1766   1.385       .  A
C1766      C1767   1.403   1_545  A
C1766      N1772   1.345       .  A
C1767      C1768   1.403       .  A
C1767      H1776   1.082       .  S
C1768      C1771   1.376       .  A
N1769      C1770   1.357       .  A
N1769      H1779   1.045       .  S
C1770      C1771   1.394       .  A
C1771      H1777   1.083       .  S
N1772      C1773   1.354       .  A
N1772      H1780   1.045       .  S
C1773      C1774   1.397       .  A
C1774      H1778   1.082       .  S
C1781      C1786   1.385       .  A
C1781      C1782   1.403       .  A
C1781      N1787   1.340       .  A
C1782      C1783   1.401       .  A
C1782      H1793   1.082       .  S
C1783      C1792   1.380       .  A
C1783      C1784   1.384       .  A
C1784      C1785   1.406       .  A
C1784      N1790   1.342       .  A
C1785      C1786   1.404       .  A
C1785      H1794   1.082       .  S
C1786      C1789   1.383       .  A
N1787      C1788   1.355       .  A
N1787      H1797   1.045       .  S
C1788      C1789   1.396       .  A
C1789      H1795   1.082       .  S
N1790      C1791   1.357       .  A
N1790      H1798   1.045       .  S
C1791      C1792   1.394       .  A
C1792      H1796   1.082       .  S
C1799      C1804   1.384       .  A
C1799      C1800   1.406       .  A
C1799      N1805   1.346       .  A
C1800      C1801   1.406       .  A
C1800      H1811   1.082       .  S
C1801      C1810   1.382       .  A
C1801      C1802   1.385       .  A
C1802      C1803   1.400       .  A
C1802      N1808   1.341       .  A
C1803      C1804   1.399       .  A
C1803      H1812   1.082       .  S
C1804      C1807   1.374       .  A
N1805      C1806   1.357       .  A
N1805      H1815   1.045       .  S
C1806      C1807   1.393       .  A
C1807      H1813   1.082       .  S
N1808      C1809   1.354       .  A
N1808      H1816   1.045       .  S
C1809      C1810   1.397       .  A
C1810      H1814   1.082       .  S
C1817      C1822   1.385       .  A
C1817      C1818   1.401       .  A
C1817      N1823   1.341       .  A
C1818      C1819   1.400       .  A
C1818      H1829   1.082       .  S
C1819      C1828   1.376       .  A
C1819      C1820   1.385       .  A
C1820      C1821   1.404       .  A
C1820      N1826   1.343       .  A
C1821      C1822   1.403       .  A
C1821      H1830   1.082       .  S
C1822      C1825   1.380       .  A
N1823      C1824   1.354       .  A
N1823      H1833   1.045       .  S
C1824      C1825   1.395       .  A
C1825      H1831   1.082       .  S
N1826      C1827   1.355       .  A
N1826      H1834   1.045       .  S
C1827      C1828   1.393       .  A
C1828      H1832   1.082       .  S
C1835      C1840   1.385       .  A
C1835      C1836   1.405       .  A
C1835      N1841   1.347       .  A
C1836      C1837   1.405       .  A
C1836      H1847   1.082       .  S
C1837      C1846   1.379       .  A
C1837      C1838   1.385       .  A
C1838      C1839   1.399       .  A
C1838      N1844   1.342       .  A
C1839      C1840   1.399       .  A
C1839      H1848   1.082       .  S
C1840      C1843   1.371       .  A
N1841      C1842   1.355       .  A
N1841      H1851   1.045       .  S
C1842      C1843   1.391       .  A
C1843      H1849   1.083       .  S
N1844      C1845   1.353       .  A
N1844      H1852   1.045       .  S
C1845      C1846   1.397       .  A
C1846      H1850   1.082       .  S
C1853      C1858   1.384       .  A
C1853      C1854   1.403   1_554  A
C1853      N1859   1.344       .  A
C1854      C1855   1.403   1_565  A
C1854      H1865   1.082   1_556  S
C1855      C1864   1.378       .  A
C1855      C1856   1.385       .  A
C1856      C1857   1.404   1_545  A
C1856      N1862   1.344       .  A
C1857      C1858   1.403   1_556  A
C1857      H1866   1.082       .  S
C1858      C1861   1.379       .  A
N1859      C1860   1.356       .  A
N1859      H1869   1.045       .  S
C1860      C1861   1.395       .  A
C1861      H1867   1.082       .  S
N1862      C1863   1.355       .  A
N1862      H1870   1.045       .  S
C1863      C1864   1.395       .  A
C1864      H1868   1.082       .  S
C1871      C1876   1.385       .  A
C1871      C1872   1.404       .  A
C1871      N1877   1.341       .  A
C1872      C1873   1.402       .  A
C1872      H1883   1.082       .  S
C1873      C1882   1.381       .  A
C1873      C1874   1.385       .  A
C1874      C1875   1.402       .  A
C1874      N1880   1.339       .  A
C1875      C1876   1.399       .  A
C1875      H1884   1.082       .  S
C1876      C1879   1.378       .  A
N1877      C1878   1.356       .  A
N1877      H1887   1.045       .  S
C1878      C1879   1.392       .  A
C1879      H1885   1.082       .  S
N1880      C1881   1.354       .  A
N1880      H1888   1.045       .  S
C1881      C1882   1.393       .  A
C1882      H1886   1.082       .  S
C1889      C1894   1.384       .  A
C1889      C1890   1.408       .  A
C1889      N1895   1.346       .  A
C1890      C1891   1.407       .  A
C1890      H1901   1.082       .  S
C1891      C1900   1.384       .  A
C1891      C1892   1.385       .  A
C1892      C1893   1.399       .  A
C1892      N1898   1.339       .  A
C1893      C1894   1.398       .  A
C1893      H1902   1.082       .  S
C1894      C1897   1.374       .  A
N1895      C1896   1.358       .  A
N1895      H1905   1.045       .  S
C1896      C1897   1.393       .  A
C1897      H1903   1.083       .  S
N1898      C1899   1.354       .  A
N1898      H1906   1.045       .  S
C1899      C1900   1.399       .  A
C1900      H1904   1.082       .  S
C1907      C1912   1.384       .  A
C1907      C1908   1.403       .  A
C1907      N1913   1.344       .  A
C1908      C1909   1.403       .  A
C1908      H1919   1.082       .  S
C1909      C1918   1.376       .  A
C1909      C1910   1.385       .  A
C1910      C1911   1.404       .  A
C1910      N1916   1.345       .  A
C1911      C1912   1.404       .  A
C1911      H1920   1.082       .  S
C1912      C1915   1.379       .  A
N1913      C1914   1.356       .  A
N1913      H1923   1.045       .  S
C1914      C1915   1.396       .  A
C1915      H1921   1.082       .  S
N1916      C1917   1.356       .  A
N1916      H1924   1.045       .  S
C1917      C1918   1.396       .  A
C1918      H1922   1.083       .  S
C1925      C1930   1.384       .  A
C1925      C1926   1.405       .  A
C1925      N1931   1.345       .  A
C1926      C1927   1.404       .  A
C1926      H1937   1.082       .  S
C1927      C1936   1.379       .  A
C1927      C1928   1.385       .  A
C1928      C1929   1.401       .  A
C1928      N1934   1.342       .  A
C1929      C1930   1.401       .  A
C1929      H1938   1.082       .  S
C1930      C1933   1.375       .  A
N1931      C1932   1.357       .  A
N1931      H1941   1.045       .  S
C1932      C1933   1.395       .  A
C1933      H1939   1.082       .  S
N1934      C1935   1.355       .  A
N1934      H1942   1.045       .  S
C1935      C1936   1.396       .  A
C1936      H1940   1.082       .  S
C1943      C1948   1.385       .  A
C1943      C1944   1.403       .  A
C1943      N1949   1.345       .  A
C1944      C1945   1.403       .  A
C1944      H1955   1.082       .  S
C1945      C1954   1.377       .  A
C1945      C1946   1.384       .  A
C1946      C1947   1.406       .  A
C1946      N1952   1.347       .  A
C1947      C1948   1.406       .  A
C1947      H1956   1.082       .  S
C1948      C1951   1.379       .  A
N1949      C1950   1.355       .  A
N1949      H1959   1.045       .  S
C1950      C1951   1.398       .  A
C1951      H1957   1.082       .  S
N1952      C1953   1.357       .  A
N1952      H1960   1.045       .  S
C1953      C1954   1.396       .  A
C1954      H1958   1.082       .  S
C1961      C1966   1.385       .  A
C1961      C1962   1.404       .  A
C1961      N1967   1.341       .  A
C1962      C1963   1.402       .  A
C1962      H1973   1.082       .  S
C1963      C1972   1.381       .  A
C1963      C1964   1.385       .  A
C1964      C1965   1.404       .  A
C1964      N1970   1.341       .  A
C1965      C1966   1.402       .  A
C1965      H1974   1.082       .  S
C1966      C1969   1.381       .  A
N1967      C1968   1.355       .  A
N1967      H1977   1.045       .  S
C1968      C1969   1.395       .  A
C1969      H1975   1.082       .  S
N1970      C1971   1.356       .  A
N1970      H1978   1.045       .  S
C1971      C1972   1.394       .  A
C1972      H1976   1.082       .  S
C1979      C1984   1.385       .  A
C1979      C1980   1.399       .  A
C1979      N1985   1.341       .  A
C1980      C1981   1.398       .  A
C1980      H1991   1.082       .  S
C1981      C1990   1.372   1_554  A
C1981      C1982   1.385       .  A
C1982      C1983   1.407       .  A
C1982      N1988   1.347   1_554  A
C1983      C1984   1.407       .  A
C1983      H1992   1.082       .  S
C1984      C1987   1.381       .  A
N1985      C1986   1.353       .  A
N1985      H1995   1.045       .  S
C1986      C1987   1.397       .  A
C1987      H1993   1.082       .  S
N1988      C1989   1.357       .  A
N1988      H1996   1.045       .  S
C1989      C1990   1.392       .  A
C1990      H1994   1.083       .  S
C1997      C2002   1.384       .  A
C1997      C1998   1.405       .  A
C1997      N2003   1.343       .  A
C1998      C1999   1.404   1_655  A
C1998      H2009   1.082       .  S
C1999      C2008   1.380       .  A
C1999      C2000   1.385       .  A
C2000      C2001   1.402       .  A
C2000      N2006   1.342       .  A
C2001      C2002   1.400   1_455  A
C2001      H2010   1.082       .  S
C2002      C2005   1.377       .  A
N2003      C2004   1.357       .  A
N2003      H2013   1.044       .  S
C2004      C2005   1.394       .  A
C2005      H2011   1.082       .  S
N2006      C2007   1.355       .  A
N2006      H2014   1.044       .  S
C2007      C2008   1.396       .  A
C2008      H2012   1.082       .  S
C2015      C2020   1.384       .  A
C2015      C2016   1.407       .  A
C2015      N2021   1.347       .  A
C2016      C2017   1.406       .  A
C2016      H2027   1.082       .  S
C2017      C2026   1.382       .  A
C2017      C2018   1.384       .  A
C2018      C2019   1.403       .  A
C2018      N2024   1.343       .  A
C2019      C2020   1.402       .  A
C2019      H2028   1.082       .  S
C2020      C2023   1.377       .  A
N2021      C2022   1.357       .  A
N2021      H2031   1.044       .  S
C2022      C2023   1.396       .  A
C2023      H2029   1.082       .  S
N2024      C2025   1.356       .  A
N2024      H2032   1.045       .  S
C2025      C2026   1.398       .  A
C2026      H2030   1.082       .  S
C2033      C2038   1.385       .  A
C2033      C2034   1.405       .  A
C2033      N2039   1.347       .  A
C2034      C2035   1.405       .  A
C2034      H2045   1.082       .  S
C2035      C2044   1.378       .  A
C2035      C2036   1.385       .  A
C2036      C2037   1.400       .  A
C2036      N2042   1.342       .  A
C2037      C2038   1.400       .  A
C2037      H2046   1.082       .  S
C2038      C2041   1.373       .  A
N2039      C2040   1.355       .  A
N2039      H2049   1.045       .  S
C2040      C2041   1.392       .  A
C2041      H2047   1.083       .  S
N2042      C2043   1.353       .  A
N2042      H2050   1.045       .  S
C2043      C2044   1.397       .  A
C2044      H2048   1.082       .  S
C2051      C2056   1.385       .  A
C2051      C2052   1.406   1_455  A
C2051      N2057   1.347       .  A
C2052      C2053   1.406       .  A
C2052      H2063   1.082   1_655  S
C2053      C2062   1.381       .  A
C2053      C2054   1.385       .  A
C2054      C2055   1.398       .  A
C2054      N2060   1.339       .  A
C2055      C2056   1.398   1_655  A
C2055      H2064   1.083       .  S
C2056      C2059   1.371       .  A
N2057      C2058   1.357       .  A
N2057      H2067   1.045       .  S
C2058      C2059   1.393       .  A
C2059      H2065   1.083       .  S
N2060      C2061   1.353       .  A
N2060      H2068   1.045       .  S
C2061      C2062   1.397       .  A
C2062      H2066   1.082       .  S
C2069      C2074   1.385       .  A
C2069      C2070   1.403       .  A
C2069      N2075   1.343       .  A
C2070      C2071   1.403       .  A
C2070      H2081   1.082       .  S
C2071      C2080   1.377       .  A
C2071      C2072   1.385       .  A
C2072      C2073   1.402       .  A
C2072      N2078   1.343       .  A
C2073      C2074   1.402       .  A
C2073      H2082   1.082       .  S
C2074      C2077   1.376       .  A
N2075      C2076   1.355       .  A
N2075      H2085   1.044       .  S
C2076      C2077   1.394       .  A
C2077      H2083   1.082       .  S
N2078      C2079   1.355       .  A
N2078      H2086   1.044       .  S
C2079      C2080   1.396       .  A
C2080      H2084   1.082       .  S
C2087      C2092   1.385       .  A
C2087      C2088   1.405       .  A
C2087      N2093   1.342       .  A
C2088      C2089   1.402       .  A
C2088      H2099   1.082       .  S
C2089      C2098   1.382       .  A
C2089      C2090   1.385       .  A
C2090      C2091   1.403       .  A
C2090      N2096   1.340       .  A
C2091      C2092   1.400       .  A
C2091      H2100   1.082       .  S
C2092      C2095   1.379       .  A
N2093      C2094   1.355       .  A
N2093      H2103   1.045       .  S
C2094      C2095   1.393       .  A
C2095      H2101   1.082       .  S
N2096      C2097   1.355       .  A
N2096      H2104   1.045       .  S
C2097      C2098   1.394       .  A
C2098      H2102   1.082       .  S
C2105      C2110   1.385       .  A
C2105      C2106   1.400       .  A
C2105      N2111   1.339       .  A
C2106      C2107   1.398       .  A
C2106      H2117   1.082       .  S
C2107      C2116   1.375       .  A
C2107      C2108   1.385       .  A
C2108      C2109   1.406       .  A
C2108      N2114   1.344       .  A
C2109      C2110   1.404       .  A
C2109      H2118   1.082       .  S
C2110      C2113   1.382       .  A
N2111      C2112   1.354       .  A
N2111      H2121   1.045       .  S
C2112      C2113   1.396       .  A
C2113      H2119   1.082       .  S
N2114      C2115   1.356       .  A
N2114      H2122   1.045       .  S
C2115      C2116   1.392       .  A
C2116      H2120   1.082       .  S
C2123      C2128   1.385       .  A
C2123      C2124   1.406       .  A
C2123      N2129   1.343       .  A
C2124      C2125   1.404       .  A
C2124      H2135   1.082       .  S
C2125      C2134   1.384       .  A
C2125      C2126   1.385       .  A
C2126      C2127   1.401       .  A
C2126      N2132   1.339       .  A
C2127      C2128   1.399       .  A
C2127      H2136   1.082       .  S
C2128      C2131   1.378       .  A
N2129      C2130   1.356       .  A
N2129      H2139   1.045       .  S
C2130      C2131   1.392       .  A
C2131      H2137   1.082       .  S
N2132      C2133   1.354       .  A
N2132      H2140   1.045       .  S
C2133      C2134   1.396       .  A
C2134      H2138   1.082       .  S
C2141      C2146   1.384       .  A
C2141      C2142   1.404       .  A
C2141      N2147   1.344       .  A
C2142      C2143   1.403       .  A
C2142      H2153   1.082       .  S
C2143      C2152   1.380       .  A
C2143      C2144   1.384       .  A
C2144      C2145   1.403       .  A
C2144      N2150   1.342       .  A
C2145      C2146   1.402       .  A
C2145      H2154   1.082       .  S
C2146      C2149   1.378       .  A
N2147      C2148   1.356       .  A
N2147      H2157   1.045       .  S
C2148      C2149   1.395       .  A
C2149      H2155   1.082       .  S
N2150      C2151   1.355       .  A
N2150      H2158   1.045       .  S
C2151      C2152   1.396       .  A
C2152      H2156   1.082       .  S
C2159      C2164   1.384       .  A
C2159      C2160   1.406       .  A
C2159      N2165   1.344       .  A
C2160      C2161   1.405   1_655  A
C2160      H2171   1.082       .  S
C2161      C2170   1.382       .  A
C2161      C2162   1.384       .  A
C2162      C2163   1.401       .  A
C2162      N2168   1.340       .  A
C2163      C2164   1.399   1_455  A
C2163      H2172   1.082       .  S
C2164      C2167   1.375       .  A
N2165      C2166   1.357       .  A
N2165      H2175   1.045       .  S
C2166      C2167   1.394       .  A
C2167      H2173   1.083       .  S
N2168      C2169   1.355       .  A
N2168      H2176   1.045       .  S
C2169      C2170   1.397       .  A
C2170      H2174   1.082       .  S
C2177      C2182   1.384       .  A
C2177      C2178   1.405   1_565  A
C2177      N2183   1.344       .  A
C2178      C2179   1.403       .  A
C2178      H2189   1.082       .  S
C2179      C2188   1.380       .  A
C2179      C2180   1.384       .  A
C2180      C2181   1.405       .  A
C2180      N2186   1.343       .  A
C2181      C2182   1.404   1_545  A
C2181      H2190   1.082   1_545  S
C2182      C2185   1.381       .  A
N2183      C2184   1.356       .  A
N2183      H2193   1.045       .  S
C2184      C2185   1.395       .  A
C2185      H2191   1.082       .  S
N2186      C2187   1.356       .  A
N2186      H2194   1.045       .  S
C2187      C2188   1.395       .  A
C2188      H2192   1.082       .  S
C2195      C2200   1.385       .  A
C2195      C2196   1.402       .  A
C2195      N2201   1.342       .  A
C2196      C2197   1.401       .  A
C2196      H2207   1.082       .  S
C2197      C2206   1.376       .  A
C2197      C2198   1.384       .  A
C2198      C2199   1.405       .  A
C2198      N2204   1.344       .  A
C2199      C2200   1.404       .  A
C2199      H2208   1.082       .  S
C2200      C2203   1.380       .  A
N2201      C2202   1.355       .  A
N2201      H2211   1.044       .  S
C2202      C2203   1.396       .  A
C2203      H2209   1.082       .  S
N2204      C2205   1.356       .  A
N2204      H2212   1.044       .  S
C2205      C2206   1.394       .  A
C2206      H2210   1.082       .  S
C2213      C2218   1.384       .  A
C2213      C2214   1.404       .  A
C2213      N2219   1.343       .  A
C2214      C2215   1.403   1_655  A
C2214      H2225   1.082       .  S
C2215      C2224   1.380       .  A
C2215      C2216   1.384       .  A
C2216      C2217   1.404       .  A
C2216      N2222   1.343       .  A
C2217      C2218   1.403   1_455  A
C2217      H2226   1.082       .  S
C2218      C2221   1.380       .  A
N2219      C2220   1.356       .  A
N2219      H2229   1.045       .  S
C2220      C2221   1.396       .  A
C2221      H2227   1.082       .  S
N2222      C2223   1.356       .  A
N2222      H2230   1.045       .  S
C2223      C2224   1.396       .  A
C2224      H2228   1.082       .  S
C2231      C2236   1.384       .  A
C2231      C2232   1.402       .  A
C2231      N2237   1.341       .  A
C2232      C2233   1.400       .  A
C2232      H2243   1.082       .  S
C2233      C2242   1.377       .  A
C2233      C2234   1.384       .  A
C2234      C2235   1.406       .  A
C2234      N2240   1.344       .  A
C2235      C2236   1.405       .  A
C2235      H2244   1.082       .  S
C2236      C2239   1.383       .  A
N2237      C2238   1.354       .  A
N2237      H2247   1.045       .  S
C2238      C2239   1.396       .  A
C2239      H2245   1.082       .  S
N2240      C2241   1.357       .  A
N2240      H2248   1.045       .  S
C2241      C2242   1.394       .  A
C2242      H2246   1.082       .  S
C2249      C2254   1.385       .  A
C2249      C2250   1.400       .  A
C2249      N2255   1.339       .  A
C2250      C2251   1.398       .  A
C2250      H2261   1.082       .  S
C2251      C2260   1.376       .  A
C2251      C2252   1.384       .  A
C2252      C2253   1.408       .  A
C2252      N2258   1.345       .  A
C2253      C2254   1.407       .  A
C2253      H2262   1.082       .  S
C2254      C2257   1.385       .  A
N2255      C2256   1.353       .  A
N2255      H2265   1.045       .  S
C2256      C2257   1.397       .  A
C2257      H2263   1.082       .  S
N2258      C2259   1.357       .  A
N2258      H2266   1.045       .  S
C2259      C2260   1.392       .  A
C2260      H2264   1.082       .  S
C2267      C2272   1.384       .  A
C2267      C2268   1.407   1_554  A
C2267      N2273   1.346       .  A
C2268      C2269   1.406   1_565  A
C2268      H2279   1.082       .  S
C2269      C2278   1.382       .  A
C2269      C2270   1.385       .  A
C2270      C2271   1.400   1_545  A
C2270      N2276   1.341       .  A
C2271      C2272   1.399   1_556  A
C2271      H2280   1.082   1_565  S
C2272      C2275   1.374       .  A
N2273      C2274   1.357       .  A
N2273      H2283   1.045       .  S
C2274      C2275   1.393       .  A
C2275      H2281   1.082       .  S
N2276      C2277   1.354       .  A
N2276      H2284   1.045       .  S
C2277      C2278   1.397       .  A
C2278      H2282   1.082       .  S
C2285      C2290   1.384       .  A
C2285      C2286   1.401       .  A
C2285      N2291   1.341       .  A
C2286      C2287   1.400       .  A
C2286      H2297   1.082       .  S
C2287      C2296   1.376       .  A
C2287      C2288   1.384       .  A
C2288      C2289   1.407       .  A
C2288      N2294   1.347       .  A
C2289      C2290   1.407       .  A
C2289      H2298   1.082       .  S
C2290      C2293   1.383       .  A
N2291      C2292   1.355       .  A
N2291      H2301   1.045       .  S
C2292      C2293   1.398       .  A
C2293      H2299   1.082       .  S
N2294      C2295   1.358       .  A
N2294      H2302   1.045       .  S
C2295      C2296   1.394       .  A
C2296      H2300   1.082       .  S
C2303      C2308   1.384       .  A
C2303      C2304   1.406       .  A
C2303      N2309   1.346       .  A
C2304      C2305   1.406       .  A
C2304      H2315   1.082       .  S
C2305      C2314   1.381       .  A
C2305      C2306   1.384       .  A
C2306      C2307   1.404       .  A
C2306      N2312   1.344       .  A
C2307      C2308   1.403       .  A
C2307      H2316   1.082       .  S
C2308      C2311   1.378       .  A
N2309      C2310   1.357       .  A
N2309      H2319   1.045       .  S
C2310      C2311   1.396       .  A
C2311      H2317   1.082       .  S
N2312      C2313   1.356       .  A
N2312      H2320   1.044       .  S
C2313      C2314   1.398       .  A
C2314      H2318   1.082       .  S
C2321      C2326   1.384       .  A
C2321      C2322   1.405       .  A
C2321      N2327   1.345       .  A
C2322      C2323   1.404   1_545  A
C2322      H2333   1.082       .  S
C2323      C2332   1.379       .  A
C2323      C2324   1.384       .  A
C2324      C2325   1.404       .  A
C2324      N2330   1.344       .  A
C2325      C2326   1.403   1_565  A
C2325      H2334   1.082       .  S
C2326      C2329   1.379       .  A
N2327      C2328   1.356       .  A
N2327      H2337   1.045       .  S
C2328      C2329   1.395       .  A
C2329      H2335   1.082       .  S
N2330      C2331   1.355       .  A
N2330      H2338   1.045       .  S
C2331      C2332   1.396       .  A
C2332      H2336   1.082       .  S
C2339      C2344   1.385       .  A
C2339      C2340   1.401       .  A
C2339      N2345   1.338       .  A
C2340      C2341   1.398       .  A
C2340      H2351   1.082       .  S
C2341      C2350   1.378       .  A
C2341      C2342   1.385       .  A
C2342      C2343   1.405       .  A
C2342      N2348   1.341       .  A
C2343      C2344   1.402       .  A
C2343      H2352   1.082       .  S
C2344      C2347   1.383       .  A
N2345      C2346   1.353       .  A
N2345      H2355   1.045       .  S
C2346      C2347   1.395       .  A
C2347      H2353   1.082       .  S
N2348      C2349   1.356       .  A
N2348      H2356   1.045       .  S
C2349      C2350   1.392       .  A
C2350      H2354   1.082       .  S
C2357      C2362   1.384       .  A
C2357      C2358   1.403       .  A
C2357      N2363   1.344       .  A
C2358      C2359   1.402       .  A
C2358      H2369   1.082       .  S
C2359      C2368   1.376       .  A
C2359      C2360   1.384       .  A
C2360      C2361   1.405       .  A
C2360      N2366   1.346       .  A
C2361      C2362   1.405       .  A
C2361      H2370   1.082       .  S
C2362      C2365   1.379       .  A
N2363      C2364   1.356       .  A
N2363      H2373   1.045       .  S
C2364      C2365   1.397       .  A
C2365      H2371   1.082       .  S
N2366      C2367   1.357       .  A
N2366      H2374   1.045       .  S
C2367      C2368   1.395       .  A
C2368      H2372   1.082       .  S
C2375      C2380   1.385       .  A
C2375      C2376   1.399       .  A
C2375      N2381   1.339       .  A
C2376      C2377   1.397       .  A
C2376      H2387   1.083       .  S
C2377      C2386   1.373       .  A
C2377      C2378   1.384       .  A
C2378      C2379   1.406       .  A
C2378      N2384   1.344       .  A
C2379      C2380   1.405       .  A
C2379      H2388   1.082       .  S
C2380      C2383   1.382       .  A
N2381      C2382   1.354       .  A
N2381      H2391   1.045       .  S
C2382      C2383   1.397       .  A
C2383      H2389   1.082       .  S
N2384      C2385   1.357       .  A
N2384      H2392   1.044       .  S
C2385      C2386   1.392       .  A
C2386      H2390   1.083       .  S
C2393      C2398   1.385       .  A
C2393      C2394   1.401       .  A
C2393      N2399   1.342       .  A
C2394      C2395   1.401       .  A
C2394      H2405   1.082       .  S
C2395      C2404   1.374   1_556  A
C2395      C2396   1.385       .  A
C2396      C2397   1.404       .  A
C2396      N2402   1.346   1_556  A
C2397      C2398   1.404       .  A
C2397      H2406   1.082       .  S
C2398      C2401   1.378       .  A
N2399      C2400   1.354       .  A
N2399      H2409   1.045       .  S
C2400      C2401   1.395       .  A
C2401      H2407   1.082       .  S
N2402      C2403   1.355       .  A
N2402      H2410   1.045       .  S
C2403      C2404   1.394       .  A
C2404      H2408   1.083       .  S
C2411      C2416   1.385       .  A
C2411      C2412   1.404       .  A
C2411      N2417   1.342       .  A
C2412      C2413   1.403       .  A
C2412      H2423   1.082       .  S
C2413      C2422   1.381       .  A
C2413      C2414   1.385       .  A
C2414      C2415   1.401       .  A
C2414      N2420   1.340       .  A
C2415      C2416   1.399       .  A
C2415      H2424   1.082       .  S
C2416      C2419   1.376       .  A
N2417      C2418   1.356       .  A
N2417      H2427   1.045       .  S
C2418      C2419   1.392       .  A
C2419      H2425   1.082       .  S
N2420      C2421   1.354       .  A
N2420      H2428   1.045       .  S
C2421      C2422   1.394       .  A
C2422      H2426   1.082       .  S
C2429      C2434   1.384       .  A
C2429      C2430   1.405   1_545  A
C2429      N2435   1.345       .  A
C2430      C2431   1.404       .  A
C2430      H2441   1.082       .  S
C2431      C2440   1.379       .  A
C2431      C2432   1.384       .  A
C2432      C2433   1.407       .  A
C2432      N2438   1.348       .  A
C2433      C2434   1.407   1_565  A
C2433      H2442   1.082   1_565  S
C2434      C2437   1.383       .  A
N2435      C2436   1.356       .  A
N2435      H2445   1.045       .  S
C2436      C2437   1.397       .  A
C2437      H2443   1.082       .  S
N2438      C2439   1.357       .  A
N2438      H2446   1.045       .  S
C2439      C2440   1.397       .  A
C2440      H2444   1.082       .  S
C2447      C2452   1.384       .  A
C2447      C2448   1.405       .  A
C2447      N2453   1.342       .  A
C2448      C2449   1.403       .  A
C2448      H2459   1.082       .  S
C2449      C2458   1.381       .  A
C2449      C2450   1.385       .  A
C2450      C2451   1.404       .  A
C2450      N2456   1.342       .  A
C2451      C2452   1.402       .  A
C2451      H2460   1.082       .  S
C2452      C2455   1.381       .  A
N2453      C2454   1.356       .  A
N2453      H2463   1.045       .  S
C2454      C2455   1.395       .  A
C2455      H2461   1.082       .  S
N2456      C2457   1.355       .  A
N2456      H2464   1.045       .  S
C2457      C2458   1.395       .  A
C2458      H2462   1.082       .  S
