geometry optimzed in LAMMPS
_audit_creation_date              2020-12-01 
_audit_creation_method            'lammps2cif' 
_symmetry_space_group_name_H-M    'P1' 
_symmetry_Int_Tables_number       1 
_symmetry_cell_setting            triclinic 
loop_ 
_symmetry_equiv_pos_as_xyz 
  x,y,z 
_cell_length_a                    27.26644294 
_cell_length_b                    24.98382696652979 
_cell_length_c                    27.257401332617146 
_cell_angle_alpha                 90.08449274744842 
_cell_angle_beta                  90.14280232607618 
_cell_angle_gamma                 82.41962529278594 
loop_ 
_atom_site_label 
_atom_site_type_symbol 
_atom_site_fract_x 
_atom_site_fract_y 
_atom_site_fract_z 
_atom_site_charge 
N1          N  0.09247184  0.98010526  0.73754885    -0.01000
C2          C  0.12634342  0.00200488  0.76571613     0.01600
C3          C  0.17380671  0.98643469  0.74896739    -0.21300
C4          C  0.17000892  0.95377754  0.70950163    -0.21500
C5          C  0.12024691  0.95031685  0.70300105     0.01500
H6          H  0.20778067  0.99701637  0.76447991     0.15200
H7          H  0.20053906  0.93344237  0.68842047     0.15300
N8          N  0.38122725  0.03076563  0.75635118    -0.01000
C9          C  0.35282959  0.06733884  0.72748569     0.01600
C10         C  0.30481336  0.07646152  0.74457605    -0.21300
C11         C  0.30287204  0.04497166  0.78519356    -0.21500
C12         C  0.34970402  0.01720369  0.79173777     0.01500
H13         H  0.27437730  0.10346396  0.72911149     0.15200
H14         H  0.27049539  0.04203316  0.80739752     0.15300
O15         O  0.13492341  0.76832565  0.54413558    -0.72000
O16         O  0.14379676  0.65191682  0.45269114    -0.72000
O17         O  0.13238419  0.76051573  0.44540265    -0.72100
O18         O  0.14595212  0.65895890  0.55149556    -0.72100
O19         O  0.06392564  0.66183899  0.55368854    -0.72100
O20         O  0.05018641  0.76378542  0.44817822    -0.72000
O21         O  0.06177128  0.65490064  0.45439549    -0.72000
O22         O  0.05286322  0.77086891  0.54783147    -0.72100
Ni23       Ni  0.14215265  0.70993977  0.49848805     1.25400
Ni24       Ni  0.05422356  0.71294873  0.50119691     1.25400
C25         C  0.09276855  0.78894910  0.56078724     0.90200
C26         C  0.10423327  0.63449153  0.43797708     0.90100
C27         C  0.08920818  0.77803395  0.42893449     0.90200
C28         C  0.10701204  0.64319796  0.56971875     0.90300
N29         N  0.14406168  0.45224088  0.74524130    -0.01000
C30         C  0.11122516  0.46983215  0.70924860     0.01600
C31         C  0.07369163  0.43784139  0.70656278    -0.21300
C32         C  0.08361139  0.39886995  0.74191108    -0.21500
C33         C  0.12675267  0.40854950  0.76498795     0.01500
H34         H  0.04226996  0.44271135  0.68188881     0.15200
H35         H  0.06076166  0.36812380  0.75122140     0.15300
N36         N  0.32475530  0.54109733  0.75097122    -0.01000
C37         C  0.34106795  0.58505206  0.77165196     0.01600
C38         C  0.38483660  0.59503655  0.75027588    -0.21300
C39         C  0.39620148  0.55614422  0.71509502    -0.21500
C40         C  0.35889181  0.52378863  0.71607646     0.01500
H41         H  0.40707842  0.62607976  0.76056706     0.15200
H42         H  0.42835072  0.55167997  0.69151344     0.15300
O43         O  0.30755087  0.85245677  0.05621141    -0.72000
O44         O  0.28791768  0.75121410  0.95498386    -0.72000
O45         O  0.28670101  0.74985305  0.05466312    -0.72100
O46         O  0.30892764  0.85414385  0.95740419    -0.72100
O47         O  0.38946172  0.82272604  0.95595514    -0.72100
O48         O  0.36776184  0.72098168  0.05629058    -0.72000
O49         O  0.36837457  0.71955126  0.95746817    -0.72000
O50         O  0.38878520  0.82499717  0.05552759    -0.72100
Ni51       Ni  0.29491918  0.80287450  0.00573739     1.25400
Ni52       Ni  0.38153475  0.77092442  0.00640163     1.25400
C53         C  0.35125315  0.85614638  0.07200317     0.90200
C54         C  0.32492733  0.71859240  0.93976149     0.90100
C55         C  0.32375450  0.71862713  0.07176257     0.90200
C56         C  0.35261926  0.85572486  0.94081182     0.90300
N57         N  0.14934338  0.44680298  0.26118328    -0.01000
C58         C  0.13382134  0.40369633  0.23830395     0.01600
C59         C  0.09064742  0.39109357  0.25907726    -0.21300
C60         C  0.07877839  0.42744818  0.29616332    -0.21500
C61         C  0.11510674  0.46108655  0.29675372     0.01500
H62         H  0.06907635  0.36006747  0.24713374     0.15200
H63         H  0.04674372  0.42961807  0.31982053     0.15300
N64         N  0.32687056  0.54409512  0.26264997    -0.01000
C65         C  0.34178761  0.58769406  0.24012330     0.01600
C66         C  0.38495693  0.60061227  0.26091872    -0.21300
C67         C  0.39751975  0.56399309  0.29760429    -0.21500
C68         C  0.36153605  0.52996621  0.29808751     0.01500
H69         H  0.40577758  0.63245414  0.24959755     0.15200
H70         H  0.42947395  0.56229399  0.32146741     0.15300
O71         O  0.41125434  0.33265660  0.55887667    -0.72000
O72         O  0.42689167  0.23038610  0.45335153    -0.72000
O73         O  0.41510340  0.33933042  0.45953661    -0.72100
O74         O  0.42216799  0.22357028  0.55329558    -0.72100
O75         O  0.34029393  0.22620702  0.54767743    -0.72100
O76         O  0.33309314  0.34236761  0.45626999    -0.72000
O77         O  0.34477974  0.23367753  0.44867852    -0.72000
O78         O  0.32931627  0.33539352  0.55496155    -0.72100
Ni79       Ni  0.42182992  0.28131077  0.50647571     1.25400
Ni80       Ni  0.33401980  0.28432292  0.50183267     1.25400
C81         C  0.36790948  0.35128631  0.57408338     0.90200
C82         C  0.38823894  0.21635525  0.43294212     0.90100
C83         C  0.37285189  0.35983169  0.44244259     0.90200
C84         C  0.38191554  0.20611589  0.56606886     0.90300
O85         O  0.18549228  0.24588874  0.05008494    -0.72000
O86         O  0.16500227  0.14346845  0.95055568    -0.72000
O87         O  0.18348685  0.24669892  0.95051065    -0.72100
O88         O  0.16677302  0.14266587  0.04972694    -0.72100
O89         O  0.08525120  0.16820736  0.04958859    -0.72100
O90         O  0.10259811  0.27619438  0.95350632    -0.72000
O91         O  0.08405618  0.17267718  0.94965742    -0.72000
O92         O  0.10410708  0.27276548  0.05227046    -0.72100
Ni93       Ni  0.17803709  0.19371242  0.00019801     1.25400
Ni94       Ni  0.09103246  0.22344714  0.00142088     1.25400
C95         C  0.14807866  0.27600309  0.06766675     0.90200
C96         C  0.12159447  0.14175707  0.93308702     0.90100
C97         C  0.14565098  0.27832734  0.93555652     0.90200
C98         C  0.12346988  0.13799933  0.06590890     0.90300
N99         N  0.08925074  0.94831457  0.23602501    -0.01000
C100        C  0.12219369  0.96206070  0.20222331     0.01600
C101        C  0.16456555  0.92504175  0.20239167    -0.21300
C102        C  0.15797924  0.88718338  0.23717423    -0.21500
C103        C  0.11185259  0.90234385  0.25743602     0.01500
H104        H  0.19713491  0.92606940  0.17996983     0.15200
H105        H  0.18464401  0.85311696  0.24776480     0.15300
N106        N  0.38946742  0.05014978  0.23657986    -0.01000
C107        C  0.36739014  0.09623483  0.25812397     0.01600
C108        C  0.32104498  0.11155564  0.23820348    -0.21300
C109        C  0.31382090  0.07354789  0.20355733    -0.21500
C110        C  0.35605606  0.03632575  0.20315031     0.01500
H111        H  0.29448939  0.14549021  0.24927027     0.15200
H112        H  0.28077178  0.07234182  0.18170605     0.15300
C113        C  0.45052518  0.96812310  0.24753046     0.26000
C114        C  0.43972848  0.02457763  0.24393199    -0.22100
C115        C  0.47927904  0.05559205  0.24404384     0.20900
C116        C  0.02827581  0.03060176  0.24622041     0.26000
C117        C  0.03908103  0.97400928  0.24387607    -0.22000
C118        C  0.99948298  0.94303847  0.24541952     0.20900
F119        F  0.00774072  0.88845038  0.24207169    -0.12000
F120        F  0.41361915  0.93699229  0.25194938    -0.14300
F121        F  0.06518219  0.06192958  0.24937731    -0.14300
F122        F  0.47078587  0.11005302  0.23927091    -0.12000
C123        C  0.15540457  0.08705904  0.14024686     0.26000
C124        C  0.11854692  0.09699748  0.10407267    -0.22100
C125        C  0.07958749  0.06511762  0.10314462     0.20900
C126        C  0.07934511  0.02192000  0.13610069     0.26000
C127        C  0.11746264  0.01095379  0.17093789    -0.22000
C128        C  0.15479377  0.04464490  0.17331142     0.20900
F129        F  0.19121986  0.03596750  0.20756512    -0.12000
F130        F  0.19233884  0.11844047  0.14347210    -0.14300
F131        F  0.04350001  0.98924536  0.13230418    -0.14300
F132        F  0.04348212  0.07372054  0.06858733    -0.12000
C133        C  0.39265053  0.20848574  0.34263047     0.26000
C134        C  0.39316114  0.18290772  0.38841939    -0.22100
C135        C  0.39271468  0.12682745  0.39065047     0.20900
C136        C  0.38911602  0.09705980  0.34736621     0.26000
C137        C  0.38498847  0.12344490  0.30171534    -0.22000
C138        C  0.38798884  0.17910636  0.29961904     0.20900
F139        F  0.38381715  0.20544729  0.25595910    -0.12000
F140        F  0.39357570  0.26262301  0.33984471    -0.14300
F141        F  0.38529699  0.04353101  0.35032225    -0.14300
F142        F  0.39302360  0.10157362  0.43473555    -0.12000
C143        C  0.32702338  0.44219503  0.40229494     0.26000
C144        C  0.36966200  0.40363446  0.40562562    -0.22100
C145        C  0.40873758  0.40657487  0.37258351     0.20900
C146        C  0.40511553  0.44683081  0.33678692     0.26000
C147        C  0.36260921  0.48514582  0.33349722    -0.22000
C148        C  0.32379019  0.48291852  0.36673564     0.20900
F149        F  0.28380607  0.52152637  0.36608292    -0.12000
F150        F  0.28921921  0.44168598  0.43455812    -0.14300
F151        F  0.44307640  0.44817723  0.30484193    -0.14300
F152        F  0.45010136  0.36981538  0.37417480    -0.12000
C153        C  0.17958211  0.29354267  0.15078315     0.26000
C154        C  0.15525988  0.31341590  0.10782005    -0.22100
C155        C  0.13300887  0.36736562  0.10597653     0.20900
C156        C  0.13229023  0.40001566  0.14777771     0.26000
C157        C  0.15248174  0.37847533  0.19210849    -0.22000
C158        C  0.17695523  0.32537907  0.19307856     0.20900
F159        F  0.19388533  0.30257304  0.23610266    -0.12000
F160        F  0.20128313  0.24147136  0.15327349    -0.14300
F161        F  0.10716749  0.45068871  0.14648423    -0.14300
F162        F  0.10987859  0.38746580  0.06446914    -0.12000
C163        C  0.19224385  0.52732545  0.24863621     0.26000
C164        C  0.19396143  0.47091916  0.25195112    -0.22100
C165        C  0.24052998  0.43900622  0.25205179     0.20900
C166        C  0.28418202  0.46301221  0.25139681     0.26000
C167        C  0.28240639  0.51955411  0.25324532    -0.22000
C168        C  0.23583749  0.55142749  0.25048509     0.20900
F169        F  0.23208187  0.60596377  0.25306216    -0.12000
F170        F  0.14807530  0.55932440  0.24585928    -0.14300
F171        F  0.32832301  0.43081183  0.25070385    -0.14300
F172        F  0.24403805  0.38466764  0.25648069    -0.12000
C173        C  0.32211993  0.90840529  0.14655544     0.26000
C174        C  0.35751896  0.89780697  0.10924769    -0.22100
C175        C  0.39554915  0.93065587  0.10538820     0.20900
C176        C  0.39651190  0.97507550  0.13692021     0.26000
C177        C  0.35991548  0.98652260  0.17305517    -0.22000
C178        C  0.32334160  0.95221054  0.17810618     0.20900
F179        F  0.28822744  0.96166855  0.21344230    -0.12000
F180        F  0.28586778  0.87651787  0.15212126    -0.14300
F181        F  0.43134560  0.00851091  0.13039174    -0.14300
F182        F  0.42970820  0.92192646  0.06911450    -0.12000
C183        C  0.33549699  0.59279437  0.14944851     0.26000
C184        C  0.32118987  0.61503902  0.19538732    -0.22100
C185        C  0.30091843  0.66963612  0.19849012     0.20900
C186        C  0.29761802  0.70232592  0.15678483     0.26000
C187        C  0.31633921  0.68132017  0.11185327    -0.22000
C188        C  0.33370692  0.62598388  0.10791693     0.20900
F189        F  0.35135044  0.60485928  0.06451201    -0.12000
F190        F  0.35609273  0.54040993  0.14588357    -0.14300
F191        F  0.28103286  0.75578039  0.16136720    -0.14300
F192        F  0.28856929  0.69240649  0.24278097    -0.12000
C193        C  0.39868339  0.43610256  0.68233406     0.26000
C194        C  0.35815778  0.47708867  0.68284541    -0.22100
C195        C  0.31936423  0.47505957  0.64928664     0.20900
C196        C  0.32142830  0.43293417  0.61502158     0.26000
C197        C  0.36280551  0.39262348  0.61345074    -0.22000
C198        C  0.40101632  0.39424539  0.64805958     0.20900
F199        F  0.44083402  0.35535986  0.64869510    -0.12000
F200        F  0.43621794  0.43679891  0.71509714    -0.14300
F201        F  0.28434881  0.43337600  0.58163442    -0.14300
F202        F  0.28088256  0.51545606  0.64799557    -0.12000
C203        C  0.30059963  0.66755635  0.81352100     0.26000
C204        C  0.32249140  0.61349113  0.81659566    -0.22100
C205        C  0.33941402  0.59240938  0.86220273     0.20900
C206        C  0.33799566  0.62608619  0.90339560     0.26000
C207        C  0.31820307  0.68077198  0.89968106    -0.22000
C208        C  0.29726842  0.70060683  0.85512342     0.20900
F209        F  0.27815551  0.75340016  0.85070023    -0.12000
F210        F  0.28618253  0.68952370  0.76941586    -0.14300
F211        F  0.35807541  0.60605477  0.94629538    -0.14300
F212        F  0.36191280  0.54071977  0.86562288    -0.12000
C213        C  0.12859951  0.36960075  0.89744721     0.26000
C214        C  0.15079206  0.31564160  0.89491986    -0.22100
C215        C  0.17202413  0.29531043  0.85068757     0.20900
C216        C  0.16725928  0.32710398  0.80841910     0.26000
C217        C  0.14379956  0.38057414  0.81053854    -0.22000
C218        C  0.12580981  0.40216110  0.85557427     0.20900
F219        F  0.10139890  0.45311797  0.85785351    -0.12000
F220        F  0.10765667  0.38988092  0.93985241    -0.14300
F221        F  0.18227217  0.30447491  0.76474366    -0.14300
F222        F  0.19296123  0.24300875  0.84730511    -0.12000
C223        C  0.23358704  0.55257344  0.76178120     0.26000
C224        C  0.27928629  0.51898036  0.76096942    -0.22100
C225        C  0.27911890  0.46277359  0.76374935     0.20900
C226        C  0.23469933  0.44060209  0.76015840     0.26000
C227        C  0.18909064  0.47423282  0.75764582    -0.22000
C228        C  0.18906180  0.53034972  0.76195855     0.20900
F229        F  0.14576621  0.56394621  0.76402247    -0.12000
F230        F  0.23162177  0.60686658  0.75852188    -0.14300
F231        F  0.23687799  0.38642649  0.75524014    -0.14300
F232        F  0.32226845  0.42908852  0.76738481    -0.12000
C233        C  0.08402901  0.86848080  0.38855913     0.26000
C234        C  0.08508932  0.81225266  0.38504507    -0.22100
C235        C  0.08763794  0.78748248  0.33880370     0.20900
C236        C  0.09257743  0.81795152  0.29665901     0.26000
C237        C  0.09430827  0.87380726  0.30009463    -0.22000
C238        C  0.08831476  0.89928187  0.34612448     0.20900
F239        F  0.09068561  0.95302208  0.35038645    -0.12000
F240        F  0.08146593  0.89295298  0.43315184    -0.14300
F241        F  0.09793510  0.79259188  0.25252389    -0.14300
F242        F  0.08812827  0.73321005  0.33481072    -0.12000
C243        C  0.07387526  0.55891367  0.67673089     0.26000
C244        C  0.11335307  0.51675139  0.67688772    -0.22100
C245        C  0.15260144  0.51804926  0.64396069     0.20900
C246        C  0.15185772  0.56055231  0.61036847     0.26000
C247        C  0.11133963  0.60191057  0.60891809    -0.22000
C248        C  0.07290486  0.60120774  0.64319817     0.20900
F249        F  0.03419111  0.64141871  0.64416211    -0.12000
F250        F  0.03608372  0.55893859  0.70911027    -0.14300
F251        F  0.18926876  0.55950726  0.57746296    -0.14300
F252        F  0.19012710  0.47659459  0.64254310    -0.12000
C253        C  0.07097274  0.54412763  0.33494522     0.26000
C254        C  0.11410846  0.50681714  0.33120835    -0.22100
C255        C  0.15420053  0.51164539  0.36246411     0.20900
C256        C  0.15134395  0.55356768  0.39683894     0.26000
C257        C  0.10776285  0.59057401  0.40120318    -0.22000
C258        C  0.06769030  0.58546770  0.36970416     0.20900
F259        F  0.02555574  0.62105035  0.37181944    -0.12000
F260        F  0.03203332  0.54078488  0.30442952    -0.14300
F261        F  0.19059808  0.55673669  0.42695577    -0.14300
F262        F  0.19527537  0.47453190  0.36106128    -0.12000
C263        C  0.33963428  0.09395165  0.64037035     0.26000
C264        C  0.36802065  0.09535803  0.68333977    -0.22100
C265        C  0.40576685  0.12858309  0.68505149     0.20900
C266        C  0.41310363  0.16211628  0.64516349     0.26000
C267        C  0.38210036  0.16344311  0.60361554    -0.22000
C268        C  0.34648328  0.12766902  0.60101508     0.20900
F269        F  0.31699084  0.12662767  0.56087583    -0.12000
F270        F  0.30375174  0.06116913  0.63728043    -0.14300
F271        F  0.44771786  0.19630797  0.64884522    -0.14300
F272        F  0.43305941  0.13143819  0.72645767    -0.12000
C273        C  0.34340059  0.99089865  0.87908753     0.26000
C274        C  0.35999341  0.97678885  0.83136340    -0.22100
C275        C  0.37904130  0.92285807  0.82114992     0.20900
C276        C  0.37950023  0.88332881  0.85777730     0.26000
C277        C  0.35994410  0.89730068  0.90444206    -0.22000
C278        C  0.34299643  0.95145981  0.91511673     0.20900
F279        F  0.32485702  0.96593689  0.96028371    -0.12000
F280        F  0.32578459  0.04287472  0.89030580    -0.14300
F281        F  0.39548166  0.83095439  0.84667094    -0.14300
F282        F  0.39355732  0.90780011  0.77500534    -0.12000
C283        C  0.11789470  0.87729205  0.58286048     0.24800
C284        C  0.09119834  0.83486202  0.59471326    -0.22100
C285        C  0.06786773  0.83447023  0.64064361     0.20900
C286        C  0.07455025  0.87404718  0.67575323     0.26000
C287        C  0.10347285  0.91502477  0.66452970    -0.22000
C288        C  0.12345156  0.91733141  0.61716310     0.20900
F289        F  0.15046983  0.95724196  0.60483443    -0.12000
F290        F  0.14002081  0.87897278  0.53838326    -0.14300
F291        F  0.05614195  0.86986141  0.72159769    -0.14300
F292        F  0.04213625  0.79349057  0.65284459    -0.12000
C293        C  0.08704622  0.11994844  0.85105283     0.26000
C294        C  0.11582536  0.10376459  0.89276456    -0.22100
C295        C  0.14349538  0.05230256  0.89376347     0.20900
C296        C  0.14423008  0.01842415  0.85313929     0.26000
C297        C  0.11758268  0.03536536  0.81044340    -0.22000
C298        C  0.08820119  0.08598406  0.80986696     0.20900
F299        F  0.06320435  0.10375713  0.76863323    -0.12000
F300        F  0.06083557  0.17001498  0.84883351    -0.14300
F301        F  0.17225059  0.96928890  0.85495610    -0.14300
F302        F  0.17079864  0.03520619  0.93387400    -0.12000
C303        C  0.45615891  0.00300393  0.70546083     0.26000
C304        C  0.43403389  0.01300817  0.75181927    -0.22100
C305        C  0.46504216  0.00765863  0.79345109     0.20900
C306        C  0.01597277  0.99149814  0.78876986     0.26000
C307        C  0.03876410  0.98842083  0.74227576    -0.22000
C308        C  0.00775423  0.99501802  0.70055116     0.20900
F309        F  0.02690650  0.99564211  0.65474791    -0.12000
F310        F  0.42801422  0.00123732  0.66454463    -0.14300
F311        F  0.04264394  0.97859827  0.83008492    -0.14300
F312        F  0.44674883  0.01987939  0.83887556    -0.12000
N313        N  0.59247196  0.98010462  0.73754867    -0.01000
C314        C  0.62634366  0.00200412  0.76571591     0.01600
C315        C  0.67380691  0.98643394  0.74896704    -0.21300
C316        C  0.67000898  0.95377702  0.70950111    -0.21500
C317        C  0.62024691  0.95031643  0.70300067     0.01500
H318        H  0.70778093  0.99701554  0.76447946     0.15200
H319        H  0.70053901  0.93344201  0.68841978     0.15300
N320        N  0.88122699  0.03076562  0.75635050    -0.01000
C321        C  0.85282917  0.06733849  0.72748478     0.01600
C322        C  0.80481285  0.07646073  0.74457493    -0.21300
C323        C  0.80287158  0.04497098  0.78519249    -0.21500
C324        C  0.84970373  0.01720350  0.79173698     0.01500
H325        H  0.77437663  0.10346300  0.72911025     0.15200
H326        H  0.77049494  0.04203231  0.80739638     0.15300
O327        O  0.63492336  0.76832538  0.54413525    -0.72000
O328        O  0.64379688  0.65191647  0.45269084    -0.72000
O329        O  0.63238417  0.76051537  0.44540226    -0.72100
O330        O  0.64595211  0.65895866  0.55149524    -0.72100
O331        O  0.56392563  0.66183868  0.55368815    -0.72100
O332        O  0.55018640  0.76378495  0.44817767    -0.72000
O333        O  0.56177141  0.65490018  0.45439513    -0.72000
O334        O  0.55286315  0.77086876  0.54783085    -0.72100
Ni335      Ni  0.64215264  0.70993947  0.49848771     1.25400
Ni336      Ni  0.55422356  0.71294838  0.50119644     1.25400
C337        C  0.59276847  0.78894889  0.56078677     0.90200
C338        C  0.60423343  0.63449111  0.43797675     0.90100
C339        C  0.58920819  0.77803356  0.42893403     0.90200
C340        C  0.60701204  0.64319767  0.56971837     0.90300
N341        N  0.64406176  0.45224083  0.74524117    -0.01000
C342        C  0.61122530  0.46983201  0.70924844     0.01600
C343        C  0.57369180  0.43784118  0.70656249    -0.21300
C344        C  0.58361161  0.39886965  0.74191080    -0.21500
C345        C  0.62675287  0.40854931  0.76498772     0.01500
H346        H  0.54227028  0.44271104  0.68188846     0.15200
H347        H  0.56076201  0.36812345  0.75122099     0.15300
N348        N  0.82475517  0.54109781  0.75097088    -0.01000
C349        C  0.84106782  0.58505254  0.77165163     0.01600
C350        C  0.88483644  0.59503709  0.75027552    -0.21300
C351        C  0.89620124  0.55614484  0.71509454    -0.21500
C352        C  0.85889160  0.52378919  0.71607603     0.01500
H353        H  0.90707819  0.62608033  0.76056666     0.15200
H354        H  0.92835039  0.55168073  0.69151284     0.15300
O355        O  0.80755108  0.85245700  0.05621123    -0.72000
O356        O  0.78791757  0.75121443  0.95498372    -0.72000
O357        O  0.78670093  0.74985348  0.05466303    -0.72100
O358        O  0.80892761  0.85414413  0.95740395    -0.72100
O359        O  0.88946164  0.82272616  0.95595477    -0.72100
O360        O  0.86776174  0.72098197  0.05629040    -0.72000
O361        O  0.86837443  0.71955146  0.95746800    -0.72000
O362        O  0.88878541  0.82499737  0.05552727    -0.72100
Ni363      Ni  0.79491917  0.80287482  0.00573722     1.25400
Ni364      Ni  0.88153472  0.77092461  0.00640136     1.25400
C365        C  0.85125337  0.85614654  0.07200298     0.90200
C366        C  0.82492717  0.71859271  0.93976131     0.90100
C367        C  0.82375441  0.71862752  0.07176245     0.90200
C368        C  0.85261922  0.85572505  0.94081148     0.90300
N369        N  0.64934363  0.44680280  0.26118287    -0.01000
C370        C  0.63382161  0.40369625  0.23830335     0.01600
C371        C  0.59064778  0.39109331  0.25907662    -0.21300
C372        C  0.57877873  0.42744768  0.29616285    -0.21500
C373        C  0.61510700  0.46108612  0.29675338     0.01500
H374        H  0.56907679  0.36006717  0.24713301     0.15200
H375        H  0.54674413  0.42961735  0.31982007     0.15300
N376        N  0.82687041  0.54409562  0.26264987    -0.01000
C377        C  0.84178728  0.58769472  0.24012334     0.01600
C378        C  0.88495651  0.60061306  0.26091880    -0.21300
C379        C  0.89751952  0.56399377  0.29760419    -0.21500
C380        C  0.86153601  0.52996670  0.29808733     0.01500
H381        H  0.90577698  0.63245516  0.24959776     0.15200
H382        H  0.92947368  0.56229482  0.32146742     0.15300
O383        O  0.91125420  0.33265702  0.55887638    -0.72000
O384        O  0.92689165  0.23038645  0.45335134    -0.72000
O385        O  0.91510334  0.33933068  0.45953623    -0.72100
O386        O  0.92216784  0.22357083  0.55329547    -0.72100
O387        O  0.84029381  0.22620742  0.54767703    -0.72100
O388        O  0.83309306  0.34236802  0.45626964    -0.72000
O389        O  0.84477972  0.23367791  0.44867821    -0.72000
O390        O  0.82931613  0.33539393  0.55496116    -0.72100
Ni391      Ni  0.92182983  0.28131116  0.50647547     1.25400
Ni392      Ni  0.83401971  0.28432332  0.50183231     1.25400
C393        C  0.86790931  0.35128673  0.57408302     0.90200
C394        C  0.88823893  0.21635559  0.43294189     0.90100
C395        C  0.87285185  0.35983202  0.44244224     0.90200
C396        C  0.88191537  0.20611639  0.56606863     0.90300
O397        O  0.68549260  0.24588850  0.05008446    -0.72000
O398        O  0.66500282  0.14346805  0.95055516    -0.72000
O399        O  0.68348742  0.24669860  0.95051018    -0.72100
O400        O  0.66677333  0.14266558  0.04972642    -0.72100
O401        O  0.58525153  0.16820722  0.04958803    -0.72100
O402        O  0.60259871  0.27619419  0.95350592    -0.72000
O403        O  0.58405676  0.17267692  0.94965678    -0.72000
O404        O  0.60410740  0.27276524  0.05226995    -0.72100
Ni405      Ni  0.67803754  0.19371211  0.00019752     1.25400
Ni406      Ni  0.59103292  0.22344693  0.00142033     1.25400
C407        C  0.64807896  0.27600285  0.06766626     0.90200
C408        C  0.62159504  0.14175668  0.93308647     0.90100
C409        C  0.64565160  0.27832712  0.93555616     0.90200
C410        C  0.62347016  0.13799916  0.06590839     0.90300
N411        N  0.58925086  0.94831484  0.23602501    -0.01000
C412        C  0.62219380  0.96206104  0.20222329     0.01600
C413        C  0.66456572  0.92504216  0.20239169    -0.21300
C414        C  0.65797945  0.88718377  0.23717424    -0.21500
C415        C  0.61185277  0.90234410  0.25743596     0.01500
H416        H  0.69713511  0.92606981  0.17996990     0.15200
H417        H  0.68464421  0.85311733  0.24776484     0.15300
N418        N  0.88946733  0.05014982  0.23657997    -0.01000
C419        C  0.86739006  0.09623487  0.25812406     0.01600
C420        C  0.82104493  0.11155580  0.23820351    -0.21300
C421        C  0.81382088  0.07354806  0.20355729    -0.21500
C422        C  0.85605602  0.03632584  0.20315033     0.01500
H423        H  0.79448938  0.14549034  0.24927028     0.15200
H424        H  0.78077178  0.07234208  0.18170598     0.15300
C425        C  0.95052506  0.96812312  0.24753064     0.26000
C426        C  0.93972840  0.02457764  0.24393219    -0.22100
C427        C  0.97927900  0.05559202  0.24404401     0.20900
C428        C  0.52827583  0.03060184  0.24622033     0.26000
C429        C  0.53908114  0.97400939  0.24387601    -0.22000
C430        C  0.49948312  0.94303851  0.24541943     0.20900
F431        F  0.50774102  0.88845043  0.24207168    -0.12000
F432        F  0.91361902  0.93699231  0.25194942    -0.14300
F433        F  0.56518217  0.06192969  0.24937733    -0.14300
F434        F  0.97078585  0.11005298  0.23927095    -0.12000
C435        C  0.65540468  0.08705916  0.14024658     0.26000
C436        C  0.61854710  0.09699743  0.10407226    -0.22100
C437        C  0.57958762  0.06511761  0.10314433     0.20900
C438        C  0.57934515  0.02192022  0.13610059     0.26000
C439        C  0.61746263  0.01095414  0.17093788    -0.22000
C440        C  0.65479372  0.04464527  0.17331136     0.20900
F441        F  0.69121976  0.03596793  0.20756512    -0.12000
F442        F  0.69233907  0.11844045  0.14347170    -0.14300
F443        F  0.54350026  0.98924535  0.13230388    -0.14300
F444        F  0.54348227  0.07372024  0.06858696    -0.12000
C445        C  0.89265039  0.20848597  0.34263024     0.26000
C446        C  0.89316119  0.18290798  0.38841921    -0.22100
C447        C  0.89271493  0.12682765  0.39065041     0.20900
C448        C  0.88911626  0.09705993  0.34736623     0.26000
C449        C  0.88498847  0.12344499  0.30171534    -0.22000
C450        C  0.88798871  0.17910648  0.29961888     0.20900
F451        F  0.88381675  0.20544731  0.25595887    -0.12000
F452        F  0.89357525  0.26262331  0.33984439    -0.14300
F453        F  0.88529731  0.04353113  0.35032246    -0.14300
F454        F  0.89302393  0.10157379  0.43473549    -0.12000
C455        C  0.82702335  0.44219532  0.40229464     0.26000
C456        C  0.86966202  0.40363486  0.40562535    -0.22100
C457        C  0.90873769  0.40657546  0.37258338     0.20900
C458        C  0.90511569  0.44683154  0.33678691     0.26000
C459        C  0.86260924  0.48514640  0.33349713    -0.22000
C460        C  0.82379011  0.48291886  0.36673539     0.20900
F461        F  0.78380573  0.52152640  0.36608248    -0.12000
F462        F  0.78921912  0.44168606  0.43455771    -0.14300
F463        F  0.94307660  0.44817806  0.30484196    -0.14300
F464        F  0.95010159  0.36981613  0.37417477    -0.12000
C465        C  0.67958249  0.29354257  0.15078261     0.26000
C466        C  0.65526014  0.31341570  0.10781955    -0.22100
C467        C  0.63300899  0.36736535  0.10597604     0.20900
C468        C  0.63229036  0.40001546  0.14777713     0.26000
C469        C  0.65248209  0.37847529  0.19210790    -0.22000
C470        C  0.67695562  0.32537902  0.19307800     0.20900
F471        F  0.69388599  0.30257306  0.23610204    -0.12000
F472        F  0.70128380  0.24147138  0.15327285    -0.14300
F473        F  0.60716720  0.45068830  0.14648361    -0.14300
F474        F  0.60987854  0.38746543  0.06446873    -0.12000
C475        C  0.69224384  0.52732543  0.24863615     0.26000
C476        C  0.69396161  0.47091913  0.25195082    -0.22100
C477        C  0.74053022  0.43900634  0.25205132     0.20900
C478        C  0.78418214  0.46301259  0.25139654     0.26000
C479        C  0.78240631  0.51955450  0.25324524    -0.22000
C480        C  0.73583733  0.55142771  0.25048510     0.20900
F481        F  0.73208147  0.60596402  0.25306216    -0.12000
F482        F  0.64807519  0.55932414  0.24585927    -0.14300
F483        F  0.82832326  0.43081249  0.25070346    -0.14300
F484        F  0.74403843  0.38466768  0.25647964    -0.12000
C485        C  0.82212002  0.90840527  0.14655538     0.26000
C486        C  0.85751914  0.89780696  0.10924767    -0.22100
C487        C  0.89554932  0.93065589  0.10538832     0.20900
C488        C  0.89651205  0.97507546  0.13692040     0.26000
C489        C  0.85991549  0.98652265  0.17305520    -0.22000
C490        C  0.82334160  0.95221057  0.17810609     0.20900
F491        F  0.78822730  0.96166861  0.21344206    -0.12000
F492        F  0.78586783  0.87651789  0.15212118    -0.14300
F493        F  0.93134562  0.00851099  0.13039180    -0.14300
F494        F  0.92970820  0.92192682  0.06911445    -0.12000
C495        C  0.83549717  0.59279486  0.14944849     0.26000
C496        C  0.82118968  0.61503951  0.19538723    -0.22100
C497        C  0.80091801  0.66963654  0.19848989     0.20900
C498        C  0.79761762  0.70232630  0.15678457     0.26000
C499        C  0.81633914  0.68132057  0.11185313    -0.22000
C500        C  0.83370713  0.62598433  0.10791690     0.20900
F501        F  0.85135072  0.60485970  0.06451200    -0.12000
F502        F  0.85609298  0.54041042  0.14588362    -0.14300
F503        F  0.78103236  0.75578078  0.16136685    -0.14300
F504        F  0.78856876  0.69240697  0.24278069    -0.12000
C505        C  0.89868311  0.43610312  0.68233358     0.26000
C506        C  0.85815754  0.47708924  0.68284493    -0.22100
C507        C  0.81936403  0.47506019  0.64928612     0.20900
C508        C  0.82142810  0.43293479  0.61502101     0.26000
C509        C  0.86280527  0.39262400  0.61345029    -0.22000
C510        C  0.90101607  0.39424595  0.64805912     0.20900
F511        F  0.94083386  0.35536052  0.64869464    -0.12000
F512        F  0.93621755  0.43679930  0.71509676    -0.14300
F513        F  0.78434871  0.43337677  0.58163372    -0.14300
F514        F  0.78088244  0.51545676  0.64799511    -0.12000
C515        C  0.80059950  0.66755688  0.81352071     0.26000
C516        C  0.82249128  0.61349166  0.81659533    -0.22100
C517        C  0.83941385  0.59240984  0.86220238     0.20900
C518        C  0.83799550  0.62608659  0.90339528     0.26000
C519        C  0.81820291  0.68077237  0.89968082    -0.22000
C520        C  0.79726824  0.70060729  0.85512321     0.20900
F521        F  0.77815507  0.75340056  0.85070025    -0.12000
F522        F  0.78618210  0.68952417  0.76941562    -0.14300
F523        F  0.85807503  0.60605505  0.94629511    -0.14300
F524        F  0.86191237  0.54072014  0.86562252    -0.12000
C525        C  0.62860019  0.36960053  0.89744701     0.26000
C526        C  0.65079265  0.31564138  0.89491956    -0.22100
C527        C  0.67202450  0.29531015  0.85068719     0.20900
C528        C  0.66725958  0.32710373  0.80841873     0.26000
C529        C  0.64379980  0.38057385  0.81053825    -0.22000
C530        C  0.62581025  0.40216081  0.85557405     0.20900
F531        F  0.60139955  0.45311772  0.85785342    -0.12000
F532        F  0.60765775  0.38988088  0.93985236    -0.14300
F533        F  0.68227253  0.30447478  0.76474325    -0.14300
F534        F  0.69296156  0.24300846  0.84730473    -0.12000
C535        C  0.73358696  0.55257368  0.76178111     0.26000
C536        C  0.77928625  0.51898069  0.76096920    -0.22100
C537        C  0.77911899  0.46277388  0.76374913     0.20900
C538        C  0.73469948  0.44060223  0.76015811     0.26000
C539        C  0.68909072  0.47423287  0.75764564    -0.22000
C540        C  0.68906177  0.53034981  0.76195849     0.20900
F541        F  0.64576612  0.56394620  0.76402248    -0.12000
F542        F  0.73162160  0.60686686  0.75852189    -0.14300
F543        F  0.73687827  0.38642660  0.75523978    -0.14300
F544        F  0.82226863  0.42908897  0.76738447    -0.12000
C545        C  0.58402856  0.86848051  0.38855877     0.26000
C546        C  0.58508940  0.81225233  0.38504463    -0.22100
C547        C  0.58763859  0.78748220  0.33880326     0.20900
C548        C  0.59257809  0.81795138  0.29665864     0.26000
C549        C  0.59430833  0.87380721  0.30009434    -0.22000
C550        C  0.58831433  0.89928170  0.34612418     0.20900
F551        F  0.59068485  0.95302194  0.35038620    -0.12000
F552        F  0.58146485  0.89295264  0.43315150    -0.14300
F553        F  0.59793649  0.79259184  0.25252353    -0.14300
F554        F  0.58812938  0.73320974  0.33481027    -0.12000
C555        C  0.57387549  0.55891355  0.67673063     0.26000
C556        C  0.61335327  0.51675123  0.67688747    -0.22100
C557        C  0.65260165  0.51804908  0.64396043     0.20900
C558        C  0.65185789  0.56055217  0.61036824     0.26000
C559        C  0.61133970  0.60191031  0.60891774    -0.22000
C560        C  0.57290498  0.60120753  0.64319782     0.20900
F561        F  0.53419123  0.64141850  0.64416175    -0.12000
F562        F  0.53608397  0.55893856  0.70911000    -0.14300
F563        F  0.68926906  0.55950728  0.57746293    -0.14300
F564        F  0.69012741  0.47659449  0.64254279    -0.12000
C565        C  0.57097291  0.54412711  0.33494500     0.26000
C566        C  0.61410862  0.50681660  0.33120813    -0.22100
C567        C  0.65420068  0.51164481  0.36246391     0.20900
C568        C  0.65134414  0.55356717  0.39683864     0.26000
C569        C  0.60776308  0.59057356  0.40120285    -0.22000
C570        C  0.56769053  0.58546723  0.36970387     0.20900
F571        F  0.52555605  0.62105000  0.37181910    -0.12000
F572        F  0.53203350  0.54078447  0.30442929    -0.14300
F573        F  0.69059823  0.55673600  0.42695555    -0.14300
F574        F  0.69527542  0.47453115  0.36106128    -0.12000
C575        C  0.83963427  0.09395144  0.64036942     0.26000
C576        C  0.86802034  0.09535791  0.68333905    -0.22100
C577        C  0.90576636  0.12858322  0.68505114     0.20900
C578        C  0.91310316  0.16211671  0.64516333     0.26000
C579        C  0.88210012  0.16344351  0.60361521    -0.22000
C580        C  0.84648328  0.12766914  0.60101433     0.20900
F581        F  0.81699110  0.12662794  0.56087485    -0.12000
F582        F  0.80375200  0.06116858  0.63727923    -0.14300
F583        F  0.94771721  0.19630861  0.64884530    -0.14300
F584        F  0.93305862  0.13143824  0.72645756    -0.12000
C585        C  0.84339986  0.99089872  0.87908671     0.26000
C586        C  0.85999323  0.97678889  0.83136276    -0.22100
C587        C  0.87904175  0.92285823  0.82114959     0.20900
C588        C  0.87950084  0.88332911  0.85777709     0.26000
C589        C  0.85994410  0.89730092  0.90444168    -0.22000
C590        C  0.84299578  0.95146001  0.91511602     0.20900
F591        F  0.82485551  0.96593720  0.96028265    -0.12000
F592        F  0.82578309  0.04287468  0.89030467    -0.14300
F593        F  0.89548301  0.83095479  0.84667099    -0.14300
F594        F  0.89355829  0.90780021  0.77500515    -0.12000
C595        C  0.61789436  0.87729197  0.58286000     0.24800
C596        C  0.59119816  0.83486183  0.59471281    -0.22100
C597        C  0.56786756  0.83447001  0.64064316     0.20900
C598        C  0.57455007  0.87404697  0.67575276     0.26000
C599        C  0.60347268  0.91502456  0.66452924    -0.22000
C600        C  0.62345123  0.91733132  0.61716259     0.20900
F601        F  0.65046940  0.95724193  0.60483376    -0.12000
F602        F  0.64002042  0.87897276  0.53838278    -0.14300
F603        F  0.55614197  0.86986107  0.72159727    -0.14300
F604        F  0.54213625  0.79349021  0.65284422    -0.12000
C605        C  0.58704654  0.11994775  0.85105250     0.26000
C606        C  0.61582590  0.10376407  0.89276411    -0.22100
C607        C  0.64349599  0.05230209  0.89376299     0.20900
C608        C  0.64423055  0.01842362  0.85313890     0.26000
C609        C  0.61758299  0.03536469  0.81044311    -0.22000
C610        C  0.58820138  0.08598330  0.80986671     0.20900
F611        F  0.56320434  0.10375630  0.76863308    -0.12000
F612        F  0.56083591  0.17001426  0.84883312    -0.14300
F613        F  0.67225103  0.96928839  0.85495575    -0.14300
F614        F  0.67079943  0.03520581  0.93387341    -0.12000
C615        C  0.95615894  0.00300408  0.70546046     0.26000
C616        C  0.93403369  0.01300844  0.75181876    -0.22100
C617        C  0.96504177  0.00765913  0.79345070     0.20900
C618        C  0.51597310  0.99149763  0.78876997     0.26000
C619        C  0.53876423  0.98842034  0.74227577    -0.22000
C620        C  0.50775416  0.99501769  0.70055130     0.20900
F621        F  0.52690620  0.99564170  0.65474796    -0.12000
F622        F  0.92801443  0.00123731  0.66454417    -0.14300
F623        F  0.54264438  0.97859748  0.83008490    -0.14300
F624        F  0.94674812  0.01988017  0.83887499    -0.12000
loop_ 
_geom_bond_atom_site_label_1 
_geom_bond_atom_site_label_2 
_geom_bond_distance 
_geom_bond_site_symmetry_2 
_ccdc_geom_bond_type 
N1            C5   1.366       .  A
N1            C2   1.368   1_565  A
N1          C307   1.458       .  S
C2            C3   1.380   1_545  A
C2          C297   1.478       .  S
C3            C4   1.361       .  A
C3            H6   1.081       .  S
C4            C5   1.382       .  A
C4            H7   1.082       .  S
C5          C287   1.479       .  S
N8           C12   1.366       .  A
N8            C9   1.366       .  A
N8          C304   1.455       .  S
C9           C10   1.381       .  A
C9          C264   1.480       .  S
C10          C11   1.364       .  A
C10          H13   1.083       .  S
C11          C12   1.382       .  A
C11          H14   1.082       .  S
C12         C274   1.480   1_545  S
O15         Ni23   1.907       .  S
O15          C25   1.280       .  A
O16         Ni23   1.908       .  S
O16          C26   1.279       .  A
O17         Ni23   1.917       .  S
O17          C27   1.281       .  A
O18         Ni23   1.921       .  S
O18          C28   1.282       .  A
O19         Ni24   1.914       .  S
O19          C28   1.281       .  A
O20         Ni24   1.919       .  S
O20          C27   1.280       .  A
O21         Ni24   1.921       .  S
O21          C26   1.283       .  A
O22         Ni24   1.921       .  S
O22          C25   1.281       .  A
Ni23        Ni24   2.390       .  S
C25         C284   1.469       .  S
C26         C257   1.479       .  S
C27         C234   1.467       .  S
C28         C247   1.480       .  S
N29          C33   1.358       .  A
N29          C30   1.360       .  A
N29         C227   1.449       .  S
C30          C31   1.381       .  A
C30         C244   1.475       .  S
C31          C32   1.372       .  A
C31          H34   1.082       .  S
C32          C33   1.382       .  A
C32          H35   1.082       .  S
C33         C217   1.470       .  S
N36          C40   1.362       .  A
N36          C37   1.359       .  A
N36         C224   1.449       .  S
C37          C38   1.381       .  A
C37         C204   1.472       .  S
C38          C39   1.371       .  A
C38          H41   1.082       .  S
C39          C40   1.381       .  A
C39          H42   1.082       .  S
C40         C194   1.478       .  S
O43         Ni51   1.911       .  S
O43          C53   1.281       .  A
O44         Ni51   1.917   1_556  S
O44          C54   1.280       .  A
O45         Ni51   1.915       .  S
O45          C55   1.280       .  A
O46         Ni51   1.913   1_556  S
O46          C56   1.281       .  A
O47         Ni52   1.922   1_556  S
O47          C56   1.280       .  A
O48         Ni52   1.918       .  S
O48          C55   1.282       .  A
O49         Ni52   1.916   1_556  S
O49          C54   1.281       .  A
O50         Ni52   1.929       .  S
O50          C53   1.283       .  A
Ni51        Ni52   2.391       .  S
C53         C174   1.479       .  S
C54         C207   1.470       .  S
C55         C187   1.469       .  S
C56         C277   1.470       .  S
N57          C61   1.362       .  A
N57          C58   1.358       .  A
N57         C164   1.450       .  S
C58          C59   1.381       .  A
C58         C157   1.469       .  S
C59          C60   1.369       .  A
C59          H62   1.082       .  S
C60          C61   1.381       .  A
C60          H63   1.083       .  S
C61         C254   1.475       .  S
N64          C68   1.364       .  A
N64          C65   1.360       .  A
N64         C167   1.451       .  S
C65          C66   1.381       .  A
C65         C184   1.472       .  S
C66          C67   1.368       .  A
C66          H69   1.082       .  S
C67          C68   1.380       .  A
C67          H70   1.082       .  S
C68         C147   1.477       .  S
O71         Ni79   1.915       .  S
O71          C81   1.281       .  A
O72         Ni79   1.919       .  S
O72          C82   1.279       .  A
O73         Ni79   1.925       .  S
O73          C83   1.284       .  A
O74         Ni79   1.927       .  S
O74          C84   1.282       .  A
O75         Ni80   1.907       .  S
O75          C84   1.280       .  A
O76         Ni80   1.908       .  S
O76          C83   1.279       .  A
O77         Ni80   1.920       .  S
O77          C82   1.281       .  A
O78         Ni80   1.922       .  S
O78          C81   1.282       .  A
Ni79        Ni80   2.389       .  S
C81         C197   1.482       .  S
C82         C134   1.469       .  S
C83         C144   1.480       .  S
C84         C267   1.478       .  S
O85         Ni93   1.911       .  S
O85          C95   1.279       .  A
O86         Ni93   1.909   1_556  S
O86          C96   1.281       .  A
O87         Ni93   1.915   1_556  S
O87          C97   1.280       .  A
O88         Ni93   1.912       .  S
O88          C98   1.281       .  A
O89         Ni94   1.928       .  S
O89          C98   1.282       .  A
O90         Ni94   1.913   1_556  S
O90          C97   1.281       .  A
O91         Ni94   1.922   1_556  S
O91          C96   1.281       .  A
O92         Ni94   1.917       .  S
O92          C95   1.282       .  A
Ni93        Ni94   2.391       .  S
C95         C154   1.468       .  S
C96         C294   1.473       .  S
C97         C214   1.468       .  S
C98         C124   1.480       .  S
N99         C103   1.361       .  A
N99         C100   1.364       .  A
N99         C117   1.449       .  S
C100        C101   1.381       .  A
C100        C127   1.482   1_565  S
C101        C102   1.369       .  A
C101        H104   1.082       .  S
C102        C103   1.381       .  A
C102        H105   1.083       .  S
C103        C237   1.478       .  S
N106        C110   1.363       .  A
N106        C107   1.360       .  A
N106        C114   1.447       .  S
C107        C108   1.381       .  A
C107        C137   1.478       .  S
C108        C109   1.370       .  A
C108        H111   1.083       .  S
C109        C110   1.382       .  A
C109        H112   1.083       .  S
C110        C177   1.482   1_545  S
C113        C114   1.406   1_565  A
C113        C430   1.399       .  A
C113        F120   1.356       .  S
C114        C115   1.408       .  A
C115        C428   1.399       .  A
C115        F122   1.356       .  S
C116        C117   1.407   1_545  A
C116        C427   1.399   1_455  A
C116        F121   1.356       .  S
C117        C118   1.410   1_455  A
C118        C425   1.399       .  A
C118        F119   1.356   1_655  S
C123        C124   1.405       .  A
C123        C128   1.394       .  A
C123        F130   1.358       .  S
C124        C125   1.409       .  A
C125        C126   1.406       .  A
C125        F132   1.357       .  S
C126        C127   1.406       .  A
C126        F131   1.357   1_545  S
C127        C128   1.405       .  A
C128        F129   1.358       .  S
C133        C134   1.402       .  A
C133        C138   1.397       .  A
C133        F140   1.358       .  S
C134        C135   1.404       .  A
C135        C136   1.404       .  A
C135        F142   1.358       .  S
C136        C137   1.406       .  A
C136        F141   1.358       .  S
C137        C138   1.405       .  A
C138        F139   1.358       .  S
C143        C144   1.411       .  A
C143        C148   1.400       .  A
C143        F150   1.358       .  S
C144        C145   1.406       .  A
C145        C146   1.396       .  A
C145        F152   1.358       .  S
C146        C147   1.405       .  A
C146        F151   1.358       .  S
C147        C148   1.402       .  A
C148        F149   1.357       .  S
C153        C154   1.403       .  A
C153        C158   1.396       .  A
C153        F160   1.358       .  S
C154        C155   1.404       .  A
C155        C156   1.399       .  A
C155        F162   1.358       .  S
C156        C157   1.405       .  A
C156        F161   1.358       .  S
C157        C158   1.404       .  A
C158        F159   1.358       .  S
C163        C164   1.407       .  A
C163        C168   1.402       .  A
C163        F170   1.357       .  S
C164        C165   1.407       .  A
C165        C166   1.402       .  A
C165        F172   1.354       .  S
C166        C167   1.408       .  A
C166        F171   1.357       .  S
C167        C168   1.409       .  A
C168        F169   1.355       .  S
C173        C174   1.404       .  A
C173        C178   1.395       .  A
C173        F180   1.358       .  S
C174        C175   1.409       .  A
C175        C176   1.406       .  A
C175        F182   1.358       .  S
C176        C177   1.406       .  A
C176        F181   1.357   1_565  S
C177        C178   1.405       .  A
C178        F179   1.358       .  S
C183        C184   1.404       .  A
C183        C188   1.401       .  A
C183        F190   1.358       .  S
C184        C185   1.405       .  A
C185        C186   1.397       .  A
C185        F192   1.358       .  S
C186        C187   1.402       .  A
C186        F191   1.358       .  S
C187        C188   1.405       .  A
C188        F189   1.358       .  S
C193        C194   1.404       .  A
C193        C198   1.397       .  A
C193        F200   1.358       .  S
C194        C195   1.403       .  A
C195        C196   1.402       .  A
C195        F202   1.357       .  S
C196        C197   1.410       .  A
C196        F201   1.358       .  S
C197        C198   1.408       .  A
C198        F199   1.358       .  S
C203        C204   1.405       .  A
C203        C208   1.398       .  A
C203        F210   1.358       .  S
C204        C205   1.404       .  A
C205        C206   1.400       .  A
C205        F212   1.358       .  S
C206        C207   1.405       .  A
C206        F211   1.358       .  S
C207        C208   1.404       .  A
C208        F209   1.358       .  S
C213        C214   1.405       .  A
C213        C218   1.399       .  A
C213        F220   1.358       .  S
C214        C215   1.404       .  A
C215        C216   1.396       .  A
C215        F222   1.358       .  S
C216        C217   1.404       .  A
C216        F221   1.358       .  S
C217        C218   1.403       .  A
C218        F219   1.358       .  S
C223        C224   1.408       .  A
C223        C228   1.400       .  A
C223        F230   1.353       .  S
C224        C225   1.407       .  A
C225        C226   1.400       .  A
C225        F232   1.357       .  S
C226        C227   1.408       .  A
C226        F231   1.353       .  S
C227        C228   1.407       .  A
C228        F229   1.356       .  S
C233        C234   1.404       .  A
C233        C238   1.404       .  A
C233        F240   1.358       .  S
C234        C235   1.401       .  A
C235        C236   1.396       .  A
C235        F242   1.358       .  S
C236        C237   1.405       .  A
C236        F241   1.358       .  S
C237        C238   1.406       .  A
C238        F239   1.357       .  S
C243        C244   1.403       .  A
C243        C248   1.396       .  A
C243        F250   1.358       .  S
C244        C245   1.402       .  A
C245        C246   1.401       .  A
C245        F252   1.357       .  S
C246        C247   1.410       .  A
C246        F251   1.358       .  S
C247        C248   1.408       .  A
C248        F249   1.358       .  S
C253        C254   1.405       .  A
C253        C258   1.395       .  A
C253        F260   1.358       .  S
C254        C255   1.402       .  A
C255        C256   1.399       .  A
C255        F262   1.357       .  S
C256        C257   1.411       .  A
C256        F261   1.358       .  S
C257        C258   1.407       .  A
C258        F259   1.358       .  S
C263        C264   1.405       .  A
C263        C268   1.393       .  A
C263        F270   1.359       .  S
C264        C265   1.406       .  A
C265        C266   1.404       .  A
C265        F272   1.357       .  S
C266        C267   1.409       .  A
C266        F271   1.357       .  S
C267        C268   1.406       .  A
C268        F269   1.358       .  S
C273        C274   1.407       .  A
C273        C278   1.393       .  A
C273        F280   1.358   1_565  S
C274        C275   1.406       .  A
C275        C276   1.404       .  A
C275        F282   1.357       .  S
C276        C277   1.406       .  A
C276        F281   1.357       .  S
C277        C278   1.401       .  A
C278        F279   1.359       .  S
C283        C284   1.401       .  A
C283        C288   1.391       .  A
C283        F290   1.359       .  S
C284        C285   1.406       .  A
C285        C286   1.404       .  A
C285        F292   1.357       .  S
C286        C287   1.407       .  A
C286        F291   1.357       .  S
C287        C288   1.407       .  A
C288        F289   1.359       .  S
C293        C294   1.409       .  A
C293        C298   1.404       .  A
C293        F300   1.358       .  S
C294        C295   1.403       .  A
C295        C296   1.391       .  A
C295        F302   1.358       .  S
C296        C297   1.406       .  A
C296        F301   1.359   1_545  S
C297        C298   1.405       .  A
C298        F299   1.357       .  S
C303        C304   1.409       .  A
C303        C620   1.401   1_545  A
C303        F310   1.356       .  S
C304        C305   1.409       .  A
C305        C618   1.400   1_545  A
C305        F312   1.355       .  S
C306        C307   1.410       .  A
C306        C617   1.400   1_465  A
C306        F311   1.355       .  S
C307        C308   1.412       .  A
C308        C615   1.401   1_465  A
C308        F309   1.355       .  S
N313        C317   1.366       .  A
N313        C314   1.368   1_565  A
N313        C619   1.458       .  S
C314        C315   1.380   1_545  A
C314        C609   1.478       .  S
C315        C316   1.361       .  A
C315        H318   1.081       .  S
C316        C317   1.382       .  A
C316        H319   1.082       .  S
C317        C599   1.479       .  S
N320        C324   1.366       .  A
N320        C321   1.366       .  A
N320        C616   1.455       .  S
C321        C322   1.381       .  A
C321        C576   1.480       .  S
C322        C323   1.364       .  A
C322        H325   1.083       .  S
C323        C324   1.382       .  A
C323        H326   1.082       .  S
C324        C586   1.480   1_545  S
O327       Ni335   1.907       .  S
O327        C337   1.280       .  A
O328       Ni335   1.908       .  S
O328        C338   1.279       .  A
O329       Ni335   1.917       .  S
O329        C339   1.281       .  A
O330       Ni335   1.921       .  S
O330        C340   1.282       .  A
O331       Ni336   1.914       .  S
O331        C340   1.281       .  A
O332       Ni336   1.919       .  S
O332        C339   1.280       .  A
O333       Ni336   1.921       .  S
O333        C338   1.283       .  A
O334       Ni336   1.921       .  S
O334        C337   1.281       .  A
Ni335      Ni336   2.390       .  S
C337        C596   1.469       .  S
C338        C569   1.479       .  S
C339        C546   1.467       .  S
C340        C559   1.480       .  S
N341        C345   1.358       .  A
N341        C342   1.360       .  A
N341        C539   1.449       .  S
C342        C343   1.381       .  A
C342        C556   1.475       .  S
C343        C344   1.372       .  A
C343        H346   1.082       .  S
C344        C345   1.382       .  A
C344        H347   1.082       .  S
C345        C529   1.470       .  S
N348        C352   1.362       .  A
N348        C349   1.359       .  A
N348        C536   1.449       .  S
C349        C350   1.381       .  A
C349        C516   1.472       .  S
C350        C351   1.371       .  A
C350        H353   1.082       .  S
C351        C352   1.381       .  A
C351        H354   1.082       .  S
C352        C506   1.478       .  S
O355       Ni363   1.911       .  S
O355        C365   1.281       .  A
O356       Ni363   1.917   1_556  S
O356        C366   1.280       .  A
O357       Ni363   1.915       .  S
O357        C367   1.280       .  A
O358       Ni363   1.913   1_556  S
O358        C368   1.281       .  A
O359       Ni364   1.922   1_556  S
O359        C368   1.280       .  A
O360       Ni364   1.918       .  S
O360        C367   1.282       .  A
O361       Ni364   1.916   1_556  S
O361        C366   1.281       .  A
O362       Ni364   1.929       .  S
O362        C365   1.283       .  A
Ni363      Ni364   2.391       .  S
C365        C486   1.479       .  S
C366        C519   1.470       .  S
C367        C499   1.469       .  S
C368        C589   1.470       .  S
N369        C373   1.362       .  A
N369        C370   1.358       .  A
N369        C476   1.450       .  S
C370        C371   1.381       .  A
C370        C469   1.469       .  S
C371        C372   1.369       .  A
C371        H374   1.082       .  S
C372        C373   1.381       .  A
C372        H375   1.083       .  S
C373        C566   1.475       .  S
N376        C380   1.364       .  A
N376        C377   1.360       .  A
N376        C479   1.451       .  S
C377        C378   1.381       .  A
C377        C496   1.472       .  S
C378        C379   1.368       .  A
C378        H381   1.082       .  S
C379        C380   1.380       .  A
C379        H382   1.082       .  S
C380        C459   1.477       .  S
O383       Ni391   1.915       .  S
O383        C393   1.281       .  A
O384       Ni391   1.919       .  S
O384        C394   1.279       .  A
O385       Ni391   1.925       .  S
O385        C395   1.284       .  A
O386       Ni391   1.927       .  S
O386        C396   1.282       .  A
O387       Ni392   1.907       .  S
O387        C396   1.280       .  A
O388       Ni392   1.908       .  S
O388        C395   1.279       .  A
O389       Ni392   1.920       .  S
O389        C394   1.281       .  A
O390       Ni392   1.922       .  S
O390        C393   1.282       .  A
Ni391      Ni392   2.389       .  S
C393        C509   1.482       .  S
C394        C446   1.469       .  S
C395        C456   1.480       .  S
C396        C579   1.478       .  S
O397       Ni405   1.911       .  S
O397        C407   1.279       .  A
O398       Ni405   1.909   1_556  S
O398        C408   1.281       .  A
O399       Ni405   1.915   1_556  S
O399        C409   1.280       .  A
O400       Ni405   1.912       .  S
O400        C410   1.281       .  A
O401       Ni406   1.928       .  S
O401        C410   1.282       .  A
O402       Ni406   1.913   1_556  S
O402        C409   1.281       .  A
O403       Ni406   1.922   1_556  S
O403        C408   1.281       .  A
O404       Ni406   1.917       .  S
O404        C407   1.282       .  A
Ni405      Ni406   2.391       .  S
C407        C466   1.468       .  S
C408        C606   1.473       .  S
C409        C526   1.468       .  S
C410        C436   1.480       .  S
N411        C415   1.361       .  A
N411        C412   1.364       .  A
N411        C429   1.449       .  S
C412        C413   1.381       .  A
C412        C439   1.482   1_565  S
C413        C414   1.369       .  A
C413        H416   1.082       .  S
C414        C415   1.381       .  A
C414        H417   1.083       .  S
C415        C549   1.478       .  S
N418        C422   1.363       .  A
N418        C419   1.360       .  A
N418        C426   1.447       .  S
C419        C420   1.381       .  A
C419        C449   1.478       .  S
C420        C421   1.370       .  A
C420        H423   1.083       .  S
C421        C422   1.382       .  A
C421        H424   1.083       .  S
C422        C489   1.482   1_545  S
C425        C426   1.406   1_565  A
C425        F432   1.356       .  S
C426        C427   1.408       .  A
C427        F434   1.356       .  S
C428        C429   1.407   1_545  A
C428        F433   1.356       .  S
C429        C430   1.410       .  A
C430        F431   1.356       .  S
C435        C436   1.405       .  A
C435        C440   1.394       .  A
C435        F442   1.358       .  S
C436        C437   1.409       .  A
C437        C438   1.406       .  A
C437        F444   1.357       .  S
C438        C439   1.406       .  A
C438        F443   1.357   1_545  S
C439        C440   1.405       .  A
C440        F441   1.358       .  S
C445        C446   1.402       .  A
C445        C450   1.397       .  A
C445        F452   1.358       .  S
C446        C447   1.404       .  A
C447        C448   1.404       .  A
C447        F454   1.358       .  S
C448        C449   1.406       .  A
C448        F453   1.358       .  S
C449        C450   1.405       .  A
C450        F451   1.358       .  S
C455        C456   1.411       .  A
C455        C460   1.400       .  A
C455        F462   1.358       .  S
C456        C457   1.406       .  A
C457        C458   1.396       .  A
C457        F464   1.358       .  S
C458        C459   1.405       .  A
C458        F463   1.358       .  S
C459        C460   1.402       .  A
C460        F461   1.357       .  S
C465        C466   1.403       .  A
C465        C470   1.396       .  A
C465        F472   1.358       .  S
C466        C467   1.404       .  A
C467        C468   1.399       .  A
C467        F474   1.358       .  S
C468        C469   1.405       .  A
C468        F473   1.358       .  S
C469        C470   1.404       .  A
C470        F471   1.358       .  S
C475        C476   1.407       .  A
C475        C480   1.402       .  A
C475        F482   1.357       .  S
C476        C477   1.407       .  A
C477        C478   1.402       .  A
C477        F484   1.354       .  S
C478        C479   1.408       .  A
C478        F483   1.357       .  S
C479        C480   1.409       .  A
C480        F481   1.355       .  S
C485        C486   1.404       .  A
C485        C490   1.395       .  A
C485        F492   1.358       .  S
C486        C487   1.409       .  A
C487        C488   1.406       .  A
C487        F494   1.358       .  S
C488        C489   1.406       .  A
C488        F493   1.357   1_565  S
C489        C490   1.405       .  A
C490        F491   1.358       .  S
C495        C496   1.404       .  A
C495        C500   1.401       .  A
C495        F502   1.358       .  S
C496        C497   1.405       .  A
C497        C498   1.397       .  A
C497        F504   1.358       .  S
C498        C499   1.402       .  A
C498        F503   1.358       .  S
C499        C500   1.405       .  A
C500        F501   1.358       .  S
C505        C506   1.404       .  A
C505        C510   1.397       .  A
C505        F512   1.358       .  S
C506        C507   1.403       .  A
C507        C508   1.402       .  A
C507        F514   1.357       .  S
C508        C509   1.410       .  A
C508        F513   1.358       .  S
C509        C510   1.408       .  A
C510        F511   1.358       .  S
C515        C516   1.405       .  A
C515        C520   1.398       .  A
C515        F522   1.358       .  S
C516        C517   1.404       .  A
C517        C518   1.400       .  A
C517        F524   1.358       .  S
C518        C519   1.405       .  A
C518        F523   1.358       .  S
C519        C520   1.404       .  A
C520        F521   1.358       .  S
C525        C526   1.405       .  A
C525        C530   1.399       .  A
C525        F532   1.358       .  S
C526        C527   1.404       .  A
C527        C528   1.396       .  A
C527        F534   1.358       .  S
C528        C529   1.404       .  A
C528        F533   1.358       .  S
C529        C530   1.403       .  A
C530        F531   1.358       .  S
C535        C536   1.408       .  A
C535        C540   1.400       .  A
C535        F542   1.353       .  S
C536        C537   1.407       .  A
C537        C538   1.400       .  A
C537        F544   1.357       .  S
C538        C539   1.408       .  A
C538        F543   1.353       .  S
C539        C540   1.407       .  A
C540        F541   1.356       .  S
C545        C546   1.404       .  A
C545        C550   1.404       .  A
C545        F552   1.358       .  S
C546        C547   1.401       .  A
C547        C548   1.396       .  A
C547        F554   1.358       .  S
C548        C549   1.405       .  A
C548        F553   1.358       .  S
C549        C550   1.406       .  A
C550        F551   1.357       .  S
C555        C556   1.403       .  A
C555        C560   1.396       .  A
C555        F562   1.358       .  S
C556        C557   1.402       .  A
C557        C558   1.401       .  A
C557        F564   1.357       .  S
C558        C559   1.410       .  A
C558        F563   1.358       .  S
C559        C560   1.408       .  A
C560        F561   1.358       .  S
C565        C566   1.405       .  A
C565        C570   1.395       .  A
C565        F572   1.358       .  S
C566        C567   1.402       .  A
C567        C568   1.399       .  A
C567        F574   1.357       .  S
C568        C569   1.411       .  A
C568        F573   1.358       .  S
C569        C570   1.407       .  A
C570        F571   1.358       .  S
C575        C576   1.405       .  A
C575        C580   1.393       .  A
C575        F582   1.359       .  S
C576        C577   1.406       .  A
C577        C578   1.404       .  A
C577        F584   1.357       .  S
C578        C579   1.409       .  A
C578        F583   1.357       .  S
C579        C580   1.406       .  A
C580        F581   1.358       .  S
C585        C586   1.407       .  A
C585        C590   1.393       .  A
C585        F592   1.358   1_565  S
C586        C587   1.406       .  A
C587        C588   1.404       .  A
C587        F594   1.357       .  S
C588        C589   1.406       .  A
C588        F593   1.357       .  S
C589        C590   1.401       .  A
C590        F591   1.359       .  S
C595        C596   1.401       .  A
C595        C600   1.391       .  A
C595        F602   1.359       .  S
C596        C597   1.406       .  A
C597        C598   1.404       .  A
C597        F604   1.357       .  S
C598        C599   1.407       .  A
C598        F603   1.357       .  S
C599        C600   1.407       .  A
C600        F601   1.359       .  S
C605        C606   1.409       .  A
C605        C610   1.404       .  A
C605        F612   1.358       .  S
C606        C607   1.403       .  A
C607        C608   1.391       .  A
C607        F614   1.358       .  S
C608        C609   1.406       .  A
C608        F613   1.359   1_545  S
C609        C610   1.405       .  A
C610        F611   1.357       .  S
C615        C616   1.409       .  A
C615        F622   1.356       .  S
C616        C617   1.409       .  A
C617        F624   1.355       .  S
C618        C619   1.410       .  A
C618        F623   1.355       .  S
C619        C620   1.412       .  A
C620        F621   1.355       .  S
