geometry optimzed in LAMMPS
_audit_creation_date              2020-12-01 
_audit_creation_method            'lammps2cif' 
_symmetry_space_group_name_H-M    'P1' 
_symmetry_Int_Tables_number       1 
_symmetry_cell_setting            triclinic 
loop_ 
_symmetry_equiv_pos_as_xyz 
  x,y,z 
_cell_length_a                    52.91831867 
_cell_length_b                    53.13448913210699 
_cell_length_c                    39.770594931082016 
_cell_angle_alpha                 90.09001660922063 
_cell_angle_beta                  90.13049476592688 
_cell_angle_gamma                 90.0671504411539 
loop_ 
_atom_site_label 
_atom_site_type_symbol 
_atom_site_fract_x 
_atom_site_fract_y 
_atom_site_fract_z 
_atom_site_charge 
Zr1        Zr  0.00100828  0.03755024  0.20204060     2.17500
O2          O  0.99706520  0.08022964  0.17999035    -0.51800
O3          O  0.00107584  0.02626007  0.14216950    -0.75000
O4          O  0.04196049  0.05889036  0.19544709    -0.81800
O5          O  0.93051842  0.03677219  0.22473262    -0.83600
O6          O  0.07271971  0.03379326  0.21698504    -0.79200
O7          O  0.96079051  0.06061460  0.19975310    -0.90800
O8          O  0.00393559  0.98380348  0.13842752    -0.76800
O9          O  0.02770946  0.00153533  0.19720844    -0.86300
O10         O  0.97380041  0.00172743  0.19770792    -0.86000
O11         O  0.02621437  0.03707482  0.25269960    -0.72700
O12         O  0.97649087  0.03649790  0.25276917    -0.84900
Zr13       Zr  0.00162191  0.96318514  0.29445666     2.26400
Zr14       Zr  0.05228656  0.00032627  0.24785574     2.06300
Zr15       Zr  0.95015923  0.00000336  0.24887747     2.10000
Zr16       Zr  0.00047054  0.96591936  0.19377524     1.78800
O17         O  0.91794029  0.01459053  0.28794056    -0.93700
O18         O  0.03577546  0.94382929  0.16791068    -0.41500
O19         O  0.97618811  0.96345051  0.24427955    -0.78100
O20         O  0.02592793  0.96381750  0.24319381    -0.96800
O21         O  0.02841760  0.99913324  0.29875535    -0.90100
O22         O  0.97467484  0.99897823  0.29949877    -0.92900
C23         C  0.00289807  0.00570663  0.12517618     1.00800
C24         C  0.93780307  0.05647777  0.20887614     1.13800
C25         C  0.06524878  0.05384537  0.20206024     1.04500
O26         O  0.08419861  0.98189916  0.21127842    -0.95100
O27         O  0.07310649  0.96627578  0.27775351    -0.90800
O28         O  0.04236048  0.94171107  0.30033979    -0.84000
C29         C  0.06562571  0.94642083  0.29324312     1.11200
O30         O  0.00343375  0.08073426  0.30109443    -0.97100
Zr31       Zr  0.00153027  0.03489676  0.30265552     1.88900
O32         O  0.00053968  0.97525979  0.35392614    -0.73700
O33         O  0.08211896  0.02039068  0.28621949    -0.53000
O34         O  0.03811774  0.05224352  0.33203844    -0.97700
O35         O  0.96367472  0.05344558  0.32710738    -0.54900
O36         O  0.00216598  0.01777214  0.35832675    -0.74200
C37         C  0.00141264  0.99575420  0.37115252     0.98100
O38         O  0.00589452  0.92199003  0.32094736    -0.63000
O39         O  0.91900804  0.98509566  0.20827552    -0.57800
O40         O  0.96160485  0.93950824  0.29681372    -0.94500
O41         O  0.93042078  0.96369268  0.27466762    -0.93000
O42         O  0.96259792  0.95066202  0.16538526    -0.93300
O43         O  0.99752157  0.92021589  0.19569452    -0.92100
C44         C  0.93826222  0.94369796  0.28944002     1.17000
H45         H  0.96269941  0.00307639  0.17846492     0.32900
H46         H  0.03594869  0.94879306  0.24050419     0.43800
H47         H  0.96373002  0.99764558  0.31882744     0.37300
H48         H  0.03631169  0.05209871  0.25518886     0.33800
H49         H  0.02963536  0.93901596  0.14525321     0.25500
H50         H  0.09859130  0.01955894  0.27451573     0.31500
H51         H  0.04760611  0.03743555  0.34031574     0.37400
H52         H  0.96737131  0.94924241  0.14140231     0.31900
H53         H  0.92122976  0.96660493  0.20763069     0.30700
H54         H  0.90197253  0.01408723  0.27492766     0.32400
H55         H  0.95757098  0.04095067  0.34365050     0.31400
H56         H  0.99234162  0.91641801  0.21905751     0.35400
H57         H  0.99382609  0.92193667  0.33994210     0.28100
H58         H  0.00739981  0.08064164  0.15927336     0.32300
H59         H  0.00198440  0.08627953  0.32479915     0.35200
H60         H  0.90250497  0.98763873  0.21945080     0.27800
H61         H  0.99905468  0.90964266  0.30460508     0.40700
H62         H  0.08054120  0.96361946  0.21121730     0.30700
H63         H  0.04852993  0.95708287  0.16366979     0.38400
H64         H  0.95096463  0.05298761  0.30881256     0.30200
H65         H  0.07758105  0.03846190  0.28588816     0.30300
H66         H  0.00604483  0.09126174  0.19618860     0.30500
Zr67       Zr  0.99785687  0.03279979  0.69804113     2.17500
O68         O  0.99381657  0.07079256  0.66396151    -0.51800
O69         O  0.99642459  0.01757834  0.63986514    -0.75000
O70         O  0.03813672  0.05496697  0.69009417    -0.81800
O71         O  0.92691634  0.03109006  0.71894625    -0.83600
O72         O  0.06986558  0.03301075  0.71504949    -0.79200
O73         O  0.95779067  0.05630874  0.69806383    -0.90800
O74         O  0.99878405  0.97501061  0.63913356    -0.76800
O75         O  0.02592777  0.99769011  0.69724885    -0.86300
O76         O  0.97187009  0.99606078  0.69669868    -0.86000
O77         O  0.02275913  0.03622277  0.74895018    -0.72700
O78         O  0.97291395  0.03431285  0.74833603    -0.84900
Zr79       Zr  0.00080269  0.96426583  0.79751336     2.26400
Zr80       Zr  0.05017425  0.00028010  0.74826574     2.06300
Zr81       Zr  0.94800960  0.99685319  0.74764240     2.10000
Zr82       Zr  0.99989403  0.96109810  0.69664902     1.78800
O83         O  0.91484126  0.01388105  0.78338146    -0.93700
O84         O  0.03700795  0.94213570  0.67077709    -0.41500
O85         O  0.97559470  0.96129201  0.74719758    -0.78100
O86         O  0.02519641  0.96260631  0.74630927    -0.96800
O87         O  0.02603375  0.00140524  0.79895278    -0.90100
O88         O  0.97222818  0.99906603  0.79845250    -0.92900
C89         C  0.99722236  0.99632673  0.62440442     1.00800
C90         C  0.93445984  0.05147698  0.70487621     1.13800
C91         C  0.06157135  0.05153164  0.69755687     1.04500
O92         O  0.08449112  0.98282394  0.71495596    -0.95100
O93         O  0.07199553  0.96744453  0.77927995    -0.90800
O94         O  0.04186439  0.94301510  0.80351210    -0.84000
C95         C  0.06496503  0.94778638  0.79552517     1.11200
O96         O  0.00068012  0.08153171  0.79097835    -0.97100
Zr97       Zr  0.99749240  0.03610255  0.79865233     1.88900
O98         O  0.00097131  0.97958150  0.85597257    -0.73700
O99         O  0.07783724  0.02173634  0.78814563    -0.53000
O100        O  0.03103917  0.05593143  0.83137439    -0.97700
O101        O  0.95856066  0.05542503  0.81878645    -0.54900
O102        O  0.99631151  0.02196518  0.85589528    -0.74200
C103        C  0.99864019  0.00091124  0.87110210     0.98100
O104        O  0.99753171  0.92516007  0.82936012    -0.63000
O105        O  0.91805982  0.97589612  0.71032628    -0.57800
O106        O  0.96211761  0.93929221  0.80035057    -0.94500
O107        O  0.92987475  0.96283045  0.77950772    -0.93000
O108        O  0.96313444  0.94014082  0.67251733    -0.93300
O109        O  0.00114039  0.91552115  0.70289992    -0.92100
C110        C  0.93859395  0.94332331  0.79441063     1.17000
H111        H  0.96068084  0.99593305  0.67742073     0.32900
H112        H  0.03563194  0.94779066  0.74452820     0.43800
H113        H  0.96120293  0.99828435  0.81776511     0.37300
H114        H  0.03228413  0.05169576  0.75008808     0.33800
H115        H  0.03048861  0.93341629  0.65050661     0.25500
H116        H  0.09496295  0.01535132  0.78296635     0.31500
H117        H  0.04472656  0.05918933  0.81504055     0.37400
H118        H  0.96876517  0.93415723  0.65016693     0.31900
H119        H  0.92370552  0.95814638  0.70971597     0.30700
H120        H  0.89920556  0.00525930  0.77590484     0.32400
H121        H  0.95093868  0.04285104  0.83406134     0.31400
H122        H  0.00197009  0.91273088  0.72748917     0.35400
H123        H  0.00496521  0.91194517  0.81484865     0.28100
H124        H  0.00555407  0.06858466  0.64481980     0.32300
H125        H  0.99568458  0.08902504  0.81278394     0.35200
H126        H  0.90201781  0.97545591  0.72307973     0.27800
H127        H  0.00945205  0.92695133  0.84844152     0.40700
H128        H  0.07945879  0.96514806  0.71069661     0.30700
H129        H  0.04681853  0.95651263  0.66184069     0.38400
H130        H  0.94716718  0.05572953  0.79901360     0.30200
H131        H  0.07814658  0.03950422  0.78072058     0.30300
H132        H  0.00117240  0.08462026  0.67755515     0.30500
Zr133      Zr  0.28490026  0.25089641  0.07278643     2.17500
O134        O  0.32528298  0.25473089  0.04367053    -0.51800
O135        O  0.27033955  0.25119407  0.01395722    -0.75000
O136        O  0.30663786  0.21035963  0.06591308    -0.81800
O137        O  0.28582570  0.32116883  0.09497713    -0.83600
O138        O  0.28303858  0.17987697  0.09070189    -0.79200
O139        O  0.30891606  0.29031643  0.07014681    -0.90800
O140        O  0.22755872  0.25236609  0.01356335    -0.76800
O141        O  0.24860733  0.22427459  0.07108619    -0.86300
O142        O  0.24894893  0.27802290  0.07115697    -0.86000
O143        O  0.28686011  0.22666422  0.12412985    -0.72700
O144        O  0.28635531  0.27566428  0.12333492    -0.84900
Zr145      Zr  0.21432746  0.25117265  0.17095549     2.26400
Zr146      Zr  0.24992195  0.20051250  0.12218167     2.06300
Zr147      Zr  0.24988343  0.30197705  0.12205638     2.10000
Zr148      Zr  0.21278195  0.25139776  0.07041842     1.78800
O149        O  0.26807577  0.33389546  0.15891430    -0.93700
O150        O  0.19381858  0.21514267  0.04246102    -0.41500
O151        O  0.21301862  0.27604904  0.12061822    -0.78100
O152        O  0.21282039  0.22638363  0.12004893    -0.96800
O153        O  0.25060448  0.22469103  0.17299015    -0.90100
O154        O  0.25032036  0.27816900  0.17292547    -0.92900
C155        C  0.24888878  0.25187069  0.99860792     1.00800
C156        C  0.30527788  0.31337247  0.07883652     1.13800
C157        C  0.30229526  0.18727896  0.07386565     1.04500
O158        O  0.23042655  0.16877520  0.08624979    -0.95100
O159        O  0.21746141  0.17978721  0.15459306    -0.90800
O160        O  0.19338554  0.21031687  0.17849413    -0.84000
C161        C  0.19810999  0.18718816  0.17122098     1.11200
O162        O  0.33239064  0.24890604  0.17162276    -0.97100
Zr163      Zr  0.28646803  0.25171032  0.17400763     1.88900
O164        O  0.22863371  0.25181753  0.22967632    -0.73700
O165        O  0.26960999  0.16969901  0.15916715    -0.53000
O166        O  0.30299789  0.21520390  0.20384587    -0.97700
O167        O  0.30664819  0.28992428  0.19500660    -0.54900
O168        O  0.27140187  0.25408960  0.23069373    -0.74200
C169        C  0.24992708  0.25317866  0.24528829     0.98100
O170        O  0.17290315  0.25393079  0.19767631    -0.63000
O171        O  0.23115695  0.33216816  0.08332516    -0.57800
O172        O  0.19142504  0.29118721  0.17475623    -0.94500
O173        O  0.21594097  0.32199733  0.15233401    -0.93000
O174        O  0.19262741  0.28835293  0.04616276    -0.93300
O175        O  0.16702798  0.25003839  0.07659006    -0.92100
C176        C  0.19609397  0.31438359  0.16769402     1.17000
H177        H  0.24941642  0.28904236  0.05188121     0.32900
H178        H  0.19770707  0.21627688  0.11845782     0.43800
H179        H  0.24965748  0.28931809  0.19210395     0.37300
H180        H  0.30208650  0.21677861  0.12584875     0.33800
H181        H  0.18570147  0.22207752  0.02202088     0.25500
H182        H  0.26831789  0.15353438  0.14685150     0.31500
H183        H  0.28791567  0.20543691  0.21067232     0.37400
H184        H  0.18501137  0.28230594  0.02486075     0.31900
H185        H  0.21269767  0.32947412  0.08523539     0.30700
H186        H  0.26096018  0.35001557  0.15081846     0.32400
H187        H  0.29364184  0.29842632  0.20878720     0.31400
H188        H  0.16404421  0.25435067  0.10048692     0.35400
H189        H  0.16084908  0.24595427  0.18180982     0.28100
H190        H  0.32439858  0.24296237  0.02437299     0.32300
H191        H  0.33823337  0.25097646  0.19514428     0.35200
H192        H  0.23414681  0.34878058  0.09392878     0.27800
H193        H  0.17351687  0.24257535  0.21738505     0.40700
H194        H  0.21213929  0.17267206  0.08668339     0.30700
H195        H  0.20830109  0.20527664  0.03387139     0.38400
H196        H  0.30858008  0.30081332  0.17499599     0.30200
H197        H  0.28784770  0.17386468  0.15884958     0.30300
H198        H  0.33807099  0.24743804  0.05904265     0.30500
Zr199      Zr  0.28389252  0.25082060  0.57480670     2.17500
O200        O  0.32791884  0.25510464  0.55744719    -0.51800
O201        O  0.27180161  0.24975941  0.51535181    -0.75000
O202        O  0.30521046  0.21012225  0.56636988    -0.81800
O203        O  0.28171437  0.32121377  0.59595209    -0.83600
O204        O  0.28164477  0.17940938  0.59082245    -0.79200
O205        O  0.30535516  0.29169972  0.56924310    -0.90800
O206        O  0.22914203  0.24623516  0.51202762    -0.76800
O207        O  0.24821378  0.22339154  0.57104640    -0.86300
O208        O  0.24736124  0.27712655  0.57061495    -0.86000
O209        O  0.28442135  0.22635941  0.62576819    -0.72700
O210        O  0.28275857  0.27589675  0.62501450    -0.84900
Zr211      Zr  0.21019730  0.24982426  0.66847231     2.26400
Zr212      Zr  0.24799369  0.19956149  0.62211540     2.06300
Zr213      Zr  0.24567946  0.30132253  0.62126765     2.10000
Zr214      Zr  0.21192005  0.24971652  0.56766987     1.78800
O215        O  0.26119180  0.33342197  0.65993495    -0.93700
O216        O  0.19034759  0.21312951  0.54423618    -0.41500
O217        O  0.20973004  0.27445722  0.61773789    -0.78100
O218        O  0.21070017  0.22496217  0.61744228    -0.96800
O219        O  0.24683383  0.22389753  0.67284316    -0.90100
O220        O  0.24559952  0.27755347  0.67223060    -0.92900
C221        C  0.25105174  0.24760333  0.49862220     1.00800
C222        C  0.30113821  0.31445747  0.57905489     1.13800
C223        C  0.30080841  0.18693578  0.57384547     1.04500
O224        O  0.23152259  0.16572616  0.58699255    -0.95100
O225        O  0.21311884  0.17862321  0.65001167    -0.90800
O226        O  0.18857336  0.20906685  0.67327465    -0.84000
C227        C  0.19315622  0.18599523  0.66542685     1.11200
O228        O  0.32826442  0.25193535  0.67293015    -0.97100
Zr229      Zr  0.28222889  0.25159574  0.67529555     1.88900
O230        O  0.22308468  0.25071084  0.72796867    -0.73700
O231        O  0.26751034  0.17068500  0.66193236    -0.53000
O232        O  0.30086308  0.21490461  0.70234429    -0.97700
O233        O  0.30045789  0.28919269  0.70100841    -0.54900
O234        O  0.26581158  0.25140677  0.73126105    -0.74200
C235        C  0.24393324  0.25117793  0.74473537     0.98100
O236        O  0.17018492  0.25272820  0.69867760    -0.63000
O237        O  0.23018519  0.33270698  0.58157707    -0.57800
O238        O  0.18483348  0.28851723  0.66867246    -0.94500
O239        O  0.20858216  0.31993577  0.64650142    -0.93000
O240        O  0.19514638  0.28485135  0.53541384    -0.93300
O241        O  0.16625178  0.25401408  0.57236674    -0.92100
C242        C  0.18851479  0.31175643  0.66086141     1.17000
H243        H  0.24827829  0.28796516  0.55118472     0.32900
H244        H  0.19573796  0.21482598  0.61450353     0.43800
H245        H  0.24415851  0.28861736  0.69140873     0.37300
H246        H  0.29971800  0.21659443  0.62774592     0.33800
H247        H  0.18085325  0.21970983  0.52465567     0.25500
H248        H  0.26301263  0.15372919  0.65343871     0.31500
H249        H  0.28634290  0.20527203  0.71129862     0.37400
H250        H  0.19046433  0.29757134  0.55249496     0.31900
H251        H  0.21153488  0.33164568  0.58269664     0.30700
H252        H  0.25501105  0.34952456  0.65051603     0.32400
H253        H  0.28649764  0.29711782  0.71370403     0.31400
H254        H  0.16214497  0.24701968  0.59476552     0.35400
H255        H  0.15728651  0.24509431  0.68372143     0.28100
H256        H  0.32966695  0.24508216  0.53657457     0.32300
H257        H  0.33402412  0.25201810  0.69664365     0.35200
H258        H  0.23432115  0.34911305  0.59208370     0.27800
H259        H  0.17167777  0.24100745  0.71791380     0.40700
H260        H  0.21440757  0.17137463  0.58036407     0.30700
H261        H  0.20396870  0.20281940  0.53421973     0.38400
H262        H  0.30356509  0.30077287  0.68197460     0.30200
H263        H  0.28590204  0.17216673  0.65785962     0.30300
H264        H  0.33794512  0.24599463  0.57460426     0.30500
Zr265      Zr  0.21512277  0.74837267  0.31813488     2.17500
O266        O  0.17468618  0.74400773  0.28895796    -0.51800
O267        O  0.22923006  0.74484213  0.25994322    -0.75000
O268        O  0.19396191  0.78887102  0.30799867    -0.81800
O269        O  0.21418353  0.67866644  0.34467268    -0.83600
O270        O  0.21835864  0.82053713  0.32876759    -0.79200
O271        O  0.19131673  0.70901591  0.31834692    -0.90800
O272        O  0.27198486  0.74381972  0.25825107    -0.76800
O273        O  0.25178244  0.77421597  0.31374112    -0.86300
O274        O  0.25045782  0.72044450  0.31882999    -0.86000
O275        O  0.21358366  0.77558857  0.36656766    -0.72700
O276        O  0.21323010  0.72589845  0.37047521    -0.84900
Zr277      Zr  0.28505366  0.75231378  0.41597702     2.26400
Zr278      Zr  0.25098143  0.80091782  0.36244887     2.06300
Zr279      Zr  0.24955699  0.69916593  0.37178125     2.10000
Zr280      Zr  0.28696094  0.74626659  0.31534424     1.78800
O281        O  0.23246914  0.66994268  0.41310545    -0.93700
O282        O  0.30853004  0.78009756  0.28568719    -0.41500
O283        O  0.28665746  0.72468137  0.36802193    -0.78100
O284        O  0.28719606  0.77393723  0.36262470    -0.96800
O285        O  0.24937920  0.77955363  0.41530322    -0.90100
O286        O  0.24869666  0.72590336  0.42006018    -0.92900
C287        C  0.25028879  0.74352313  0.24403269     1.00800
C288        C  0.19480389  0.68621928  0.32813042     1.13800
C289        C  0.19857922  0.81232564  0.31360647     1.04500
O290        O  0.26954032  0.83206884  0.32507485    -0.95100
O291        O  0.28539789  0.82217612  0.39136183    -0.90800
O292        O  0.30831109  0.79211167  0.41827323    -0.84000
C293        C  0.30464956  0.81489159  0.40847811     1.11200
O294        O  0.16741100  0.75691467  0.41089317    -0.97100
Zr295      Zr  0.21301963  0.75314038  0.41820667     1.88900
O296        O  0.27001792  0.75244607  0.47451653    -0.73700
O297        O  0.23103883  0.83206057  0.39867456    -0.53000
O298        O  0.19736741  0.79182832  0.44373429    -0.97700
O299        O  0.19043740  0.71823989  0.44420222    -0.54900
O300        O  0.22721405  0.75258310  0.47526666    -0.74200
C301        C  0.24866732  0.75230365  0.49001000     0.98100
O302        O  0.32274083  0.75609133  0.45121432    -0.63000
O303        O  0.26666596  0.66505828  0.33776529    -0.57800
O304        O  0.30968718  0.71343478  0.41884796    -0.94500
O305        O  0.28477419  0.68098994  0.40201332    -0.93000
O306        O  0.30392062  0.70678770  0.29398596    -0.93300
O307        O  0.33280015  0.74537639  0.32073385    -0.92100
C308        C  0.30524492  0.68984729  0.41465611     1.17000
H309        H  0.24963521  0.70846891  0.30055592     0.32900
H310        H  0.30257711  0.78343782  0.35979319     0.43800
H311        H  0.24906774  0.71574006  0.44016635     0.37300
H312        H  0.19854085  0.78579636  0.36743956     0.33800
H313        H  0.31573351  0.77202273  0.26540429     0.25500
H314        H  0.23375625  0.84830306  0.38705402     0.31500
H315        H  0.21190465  0.79886453  0.45635475     0.37400
H316        H  0.31102345  0.71103609  0.27168947     0.31900
H317        H  0.28504808  0.66843358  0.33659525     0.30700
H318        H  0.21389599  0.67091934  0.41045862     0.32400
H319        H  0.20364619  0.70809081  0.45545766     0.31400
H320        H  0.33612685  0.75016891  0.34440548     0.35400
H321        H  0.32151214  0.74247787  0.46811992     0.28100
H322        H  0.17629840  0.75393782  0.26801969     0.32300
H323        H  0.16050469  0.75930630  0.43379539     0.35200
H324        H  0.26519954  0.64992763  0.35214567     0.27800
H325        H  0.33716675  0.75132131  0.43672206     0.40700
H326        H  0.28682127  0.82579183  0.32063860     0.30700
H327        H  0.29477603  0.79089161  0.27694470     0.38400
H328        H  0.18473263  0.70764541  0.42513408     0.30200
H329        H  0.21267662  0.82884950  0.39644512     0.30300
H330        H  0.16214266  0.75318010  0.30276077     0.30500
Zr331      Zr  0.21371530  0.74860262  0.82000226     2.17500
O332        O  0.17180104  0.74462657  0.79476647    -0.51800
O333        O  0.22593728  0.74783890  0.76046971    -0.75000
O334        O  0.19198792  0.78929753  0.81351304    -0.81800
O335        O  0.21396016  0.67800508  0.84266159    -0.83600
O336        O  0.21618533  0.81961813  0.83793428    -0.79200
O337        O  0.19005890  0.70905454  0.81964809    -0.90800
O338        O  0.26868717  0.74792057  0.75739164    -0.76800
O339        O  0.24969850  0.77545195  0.81672477    -0.86300
O340        O  0.24971300  0.72159919  0.81612334    -0.86000
O341        O  0.21317197  0.77279929  0.87135884    -0.72700
O342        O  0.21442510  0.72343346  0.87001805    -0.84900
Zr343      Zr  0.28700841  0.74857056  0.91498270     2.26400
Zr344      Zr  0.25002682  0.79896134  0.86818593     2.06300
Zr345      Zr  0.25099837  0.69736454  0.86683952     2.10000
Zr346      Zr  0.28554314  0.74852311  0.81364937     1.78800
O347        O  0.23337137  0.66629185  0.90516950    -0.93700
O348        O  0.30320025  0.78571281  0.78661917    -0.41500
O349        O  0.28733286  0.72398038  0.86403933    -0.78100
O350        O  0.28699684  0.77308563  0.86386343    -0.96800
O351        O  0.25055989  0.77471529  0.91889055    -0.90100
O352        O  0.25136723  0.72116019  0.91787872    -0.92900
C353        C  0.24675701  0.74776669  0.74377909     1.00800
C354        C  0.19386773  0.68600974  0.82816561     1.13800
C355        C  0.19665912  0.81238698  0.82132488     1.04500
O356        O  0.26824619  0.83102179  0.83186277    -0.95100
O357        O  0.28401286  0.82005123  0.89763662    -0.90800
O358        O  0.30868845  0.78951057  0.92043244    -0.84000
C359        C  0.30399862  0.81265305  0.91296680     1.11200
O360        O  0.16902060  0.74419382  0.91681289    -0.97100
Zr361      Zr  0.21491427  0.74731695  0.92062458     1.88900
O362        O  0.27402082  0.74754118  0.97452924    -0.73700
O363        O  0.23158906  0.82857080  0.90793888    -0.53000
O364        O  0.19419106  0.78340503  0.94640419    -0.97700
O365        O  0.19774128  0.71000433  0.94809345    -0.54900
O366        O  0.23126095  0.74888419  0.97661595    -0.74200
C367        C  0.25294603  0.74809173  0.99071468     0.98100
O368        O  0.32839285  0.74569866  0.94199203    -0.63000
O369        O  0.26787778  0.66644285  0.82749061    -0.57800
O370        O  0.31021140  0.70868481  0.91717698    -0.94500
O371        O  0.28656632  0.67732521  0.89419824    -0.93000
O372        O  0.30487760  0.71215258  0.78676161    -0.93300
O373        O  0.33152728  0.74950371  0.81553153    -0.92100
C374        C  0.30631887  0.68541627  0.90957847     1.17000
H375        H  0.24862543  0.71075380  0.79666321     0.32900
H376        H  0.30206275  0.78314278  0.86140114     0.43800
H377        H  0.25266871  0.71008772  0.93704016     0.37300
H378        H  0.19798399  0.78268049  0.87364404     0.33800
H379        H  0.31119318  0.77932896  0.76579741     0.25500
H380        H  0.23481271  0.84534657  0.89802111     0.31500
H381        H  0.20817759  0.79429658  0.95433772     0.37400
H382        H  0.30511912  0.69902812  0.80439354     0.31900
H383        H  0.26484553  0.64998480  0.83840684     0.30700
H384        H  0.23921704  0.64987090  0.89635779     0.32400
H385        H  0.21190858  0.70263256  0.96102563     0.31400
H386        H  0.33580374  0.74519426  0.83907856     0.35400
H387        H  0.34052490  0.75342382  0.92611990     0.28100
H388        H  0.17184683  0.75574269  0.77480875     0.32300
H389        H  0.16280393  0.74523763  0.94024516     0.35200
H390        H  0.25619477  0.66655699  0.80801617     0.27800
H391        H  0.32781002  0.75729533  0.96149195     0.40700
H392        H  0.28632328  0.82645578  0.82997345     0.30700
H393        H  0.28835312  0.79532682  0.77860117     0.38400
H394        H  0.19465417  0.69789576  0.92958454     0.30200
H395        H  0.21310436  0.82615829  0.90577773     0.30300
H396        H  0.15999526  0.75265260  0.81082057     0.30500
Zr397      Zr  0.49737983  0.96773848  0.94101013     2.17500
O398        O  0.49996041  0.92824004  0.90970141    -0.51800
O399        O  0.49737138  0.98231985  0.88254595    -0.75000
O400        O  0.45662048  0.94636108  0.93515239    -0.81800
O401        O  0.56790081  0.96569863  0.96226215    -0.83600
O402        O  0.42616066  0.96816323  0.96280310    -0.79200
O403        O  0.53592054  0.94249325  0.93983097    -0.90800
O404        O  0.49604855  0.02493005  0.88203243    -0.76800
O405        O  0.47017249  0.00340532  0.94114125    -0.86300
O406        O  0.52434968  0.00372604  0.93796664    -0.86000
O407        O  0.47418838  0.96519898  0.99303307    -0.72700
O408        O  0.52364647  0.96653808  0.99016596    -0.84900
Zr409      Zr  0.49977446  0.03718953  0.03991584     2.26400
Zr410      Zr  0.44765212  0.00170659  0.99332018     2.06300
Zr411      Zr  0.54984159  0.00293363  0.98765056     2.10000
Zr412      Zr  0.49709062  0.03931608  0.93910441     1.78800
O413        O  0.58398890  0.98762270  0.02330435    -0.93700
O414        O  0.45891465  0.05686342  0.91404111    -0.41500
O415        O  0.52321002  0.03915893  0.98817995    -0.78100
O416        O  0.47362399  0.03875452  0.99006080    -0.96800
O417        O  0.47338075  0.00082712  0.04297575    -0.90100
O418        O  0.52718588  0.00149851  0.03956718    -0.92900
C419        C  0.49642484  0.00359949  0.86721349     1.00800
C420        C  0.55923698  0.94585527  0.94782182     1.13800
C421        C  0.43361993  0.94963765  0.94453895     1.04500
O422        O  0.41307927  0.01922253  0.96037814    -0.95100
O423        O  0.42805935  0.03572356  0.02422870    -0.90800
O424        O  0.45918459  0.05906907  0.04850213    -0.84000
C425        C  0.43582567  0.05486698  0.04105673     1.11200
O426        O  0.50161587  0.91971257  0.03382853    -0.97100
Zr427      Zr  0.50070475  0.96525056  0.04151324     1.88900
O428        O  0.50218295  0.02209251  0.09837495    -0.73700
O429        O  0.42015565  0.98255255  0.03515847    -0.53000
O430        O  0.46358302  0.94567745  0.06656443    -0.97700
O431        O  0.53817354  0.94524001  0.06522274    -0.54900
O432        O  0.50234173  0.97942659  0.09874071    -0.74200
C433        C  0.50283467  0.00073889  0.11368894     0.98100
O434        O  0.50445442  0.07720303  0.06952736    -0.63000
O435        O  0.57918221  0.01926758  0.94585156    -0.57800
O436        O  0.53945132  0.06109053  0.04167367    -0.94500
O437        O  0.56975625  0.03838920  0.01507273    -0.93000
O438        O  0.53260571  0.06053033  0.91239008    -0.93300
O439        O  0.49542390  0.08488888  0.94522239    -0.92100
C440        C  0.56238519  0.05758200  0.03200340     1.17000
H441        H  0.53482434  0.00330288  0.91810505     0.32900
H442        H  0.46360648  0.05387557  0.98873989     0.43800
H443        H  0.53882577  0.00200198  0.05829979     0.37300
H444        H  0.46448244  0.94988643  0.99488663     0.33800
H445        H  0.46476836  0.06560482  0.89350588     0.25500
H446        H  0.40301981  0.98870338  0.02946184     0.31500
H447        H  0.45806263  0.95747126  0.08437759     0.37400
H448        H  0.54118764  0.04737981  0.89897067     0.31900
H449        H  0.57740616  0.03778871  0.94718310     0.30700
H450        H  0.59962165  0.99119164  0.01052714     0.32400
H451        H  0.54557853  0.95782758  0.08076161     0.31400
H452        H  0.50733627  0.08869498  0.96378995     0.35400
H453        H  0.49680671  0.09005843  0.05464954     0.28100
H454        H  0.48755334  0.92961507  0.89111826     0.32300
H455        H  0.50080305  0.91248973  0.05673870     0.35200
H456        H  0.59616972  0.01582042  0.95524265     0.27800
H457        H  0.49310528  0.07621985  0.08924147     0.40700
H458        H  0.41798145  0.03695539  0.95639146     0.30700
H459        H  0.44936464  0.04213530  0.90550264     0.38400
H460        H  0.55027265  0.94439646  0.04629766     0.30200
H461        H  0.41978268  0.96441733  0.02944218     0.30300
H462        H  0.49305208  0.91513394  0.92481499     0.30500
Zr463      Zr  0.50232696  0.96510699  0.44379583     2.17500
O464        O  0.50743602  0.92538578  0.41366004    -0.51800
O465        O  0.50607717  0.97787916  0.38452273    -0.75000
O466        O  0.46186668  0.94330211  0.43476601    -0.81800
O467        O  0.57139656  0.96454210  0.47393159    -0.83600
O468        O  0.42992713  0.96687048  0.45625492    -0.79200
O469        O  0.54110739  0.94004702  0.45001453    -0.90800
O470        O  0.50556581  0.02041195  0.38095013    -0.76800
O471        O  0.47481152  0.00038214  0.43896833    -0.86300
O472        O  0.52897060  0.00139861  0.44135157    -0.86000
O473        O  0.47593878  0.96421666  0.49333924    -0.72700
O474        O  0.52530759  0.96606602  0.49584816    -0.84900
Zr475      Zr  0.49730945  0.03807204  0.53781450     2.26400
Zr476      Zr  0.44909352  0.00041630  0.48858315     2.06300
Zr477      Zr  0.55114793  0.00275392  0.49386099     2.10000
Zr478      Zr  0.50128077  0.03659248  0.43711265     1.78800
O479        O  0.58448259  0.98877995  0.53180143    -0.93700
O480        O  0.46434562  0.05121624  0.40599717    -0.41500
O481        O  0.52404109  0.03855387  0.48901991    -0.78100
O482        O  0.47447799  0.03780871  0.48531539    -0.96800
O483        O  0.47145818  0.00145213  0.54085263    -0.90100
O484        O  0.52524715  0.00303664  0.54307818    -0.92900
C485        C  0.50672102  0.99853591  0.36762256     1.00800
C486        C  0.56390448  0.94386553  0.46038197     1.13800
C487        C  0.43829929  0.94750058  0.44056423     1.04500
O488        O  0.41539468  0.01661228  0.45296208    -0.95100
O489        O  0.42656297  0.03436874  0.51625257    -0.90800
O490        O  0.45600903  0.05867926  0.54229099    -0.84000
C491        C  0.43315318  0.05390643  0.53318540     1.11200
O492        O  0.50132687  0.92060769  0.54203210    -0.97100
Zr493      Zr  0.49938127  0.96642142  0.54470118     1.88900
O494        O  0.49559471  0.02590893  0.59711856    -0.73700
O495        O  0.42083218  0.97974195  0.52815800    -0.53000
O496        O  0.46255036  0.94615138  0.56947817    -0.97700
O497        O  0.53652545  0.94917559  0.57285576    -0.54900
O498        O  0.49714825  0.98337008  0.60059088    -0.74200
C499        C  0.49603586  0.00525478  0.61391611     0.98100
O500        O  0.49944202  0.08009979  0.56262788    -0.63000
O501        O  0.58161867  0.02047330  0.45458579    -0.57800
O502        O  0.53635361  0.06181863  0.54473618    -0.94500
O503        O  0.56864642  0.03779232  0.52511991    -0.93000
O504        O  0.53879761  0.05842692  0.41699556    -0.93300
O505        O  0.49865440  0.08235595  0.43726454    -0.92100
C506        C  0.55991649  0.05745780  0.53979799     1.17000
H507        H  0.54074151  0.00048969  0.42285067     0.32900
H508        H  0.46417824  0.05262602  0.48241769     0.43800
H509        H  0.53562475  0.00457322  0.56298218     0.37300
H510        H  0.46619795  0.94890247  0.49494712     0.33800
H511        H  0.47127755  0.06045550  0.38647293     0.25500
H512        H  0.40366136  0.98317380  0.51937403     0.31500
H513        H  0.45313633  0.95991233  0.58061907     0.37400
H514        H  0.54703719  0.04647095  0.40138206     0.31900
H515        H  0.58084935  0.03887698  0.45839025     0.30700
H516        H  0.60019418  0.98948641  0.51835880     0.32400
H517        H  0.54305316  0.96290230  0.58732632     0.31400
H518        H  0.49778918  0.08699039  0.46135909     0.35400
H519        H  0.49113070  0.09152446  0.54636037     0.28100
H520        H  0.49660408  0.92671533  0.39340508     0.32300
H521        H  0.50120349  0.91478759  0.56568004     0.35200
H522        H  0.59831082  0.01542711  0.46360299     0.27800
H523        H  0.48812708  0.07972267  0.58242231     0.40700
H524        H  0.42142375  0.03339916  0.44574879     0.30700
H525        H  0.45677960  0.03583347  0.39609772     0.38400
H526        H  0.54930692  0.94742013  0.55486225     0.30200
H527        H  0.42335118  0.96150513  0.52430980     0.30300
H528        H  0.49921955  0.91243323  0.42781000     0.30500
Zr529      Zr  0.71790872  0.74646022  0.43915434     2.17500
O530        O  0.67925209  0.74793905  0.47251276    -0.51800
O531        O  0.73360336  0.74573485  0.49718465    -0.75000
O532        O  0.69635089  0.70543119  0.44371797    -0.81800
O533        O  0.71688948  0.81792628  0.42105358    -0.83600
O534        O  0.71964208  0.67557565  0.41711624    -0.79200
O535        O  0.69345396  0.78573402  0.44225560    -0.90800
O536        O  0.77639761  0.74573686  0.49728581    -0.76800
O537        O  0.75389542  0.71953147  0.43778260    -0.86300
O538        O  0.75419257  0.77333248  0.44134586    -0.86000
O539        O  0.71461818  0.72371422  0.38673224    -0.72700
O540        O  0.71577995  0.77326988  0.39070370    -0.84900
Zr541      Zr  0.78588902  0.74938866  0.33869090     2.26400
Zr542      Zr  0.75148129  0.69751112  0.38525420     2.06300
Zr543      Zr  0.75259184  0.79921992  0.39206545     2.10000
Zr544      Zr  0.78999923  0.74630982  0.43943172     1.78800
O545        O  0.73451479  0.83123112  0.35548076    -0.93700
O546        O  0.80859843  0.70892710  0.46484416    -0.41500
O547        O  0.78885623  0.77251589  0.39060035    -0.78100
O548        O  0.78882838  0.72302854  0.38798127    -0.96800
O549        O  0.74917537  0.72350526  0.33637194    -0.90100
O550        O  0.75016797  0.77681266  0.33991589    -0.92900
C551        C  0.75507648  0.74554280  0.51240798     1.00800
C552        C  0.69709500  0.80921806  0.43564611     1.13800
C553        C  0.70056594  0.68253264  0.43456907     1.04500
O554        O  0.77248069  0.66489555  0.41787678    -0.95100
O555        O  0.78245066  0.67781137  0.34924356    -0.90800
O556        O  0.80726862  0.70906539  0.32859318    -0.84000
C557        C  0.80200998  0.68568222  0.33345943     1.11200
O558        O  0.66820370  0.75324162  0.34976557    -0.97100
Zr559      Zr  0.71349734  0.75072849  0.33901539     1.88900
O560        O  0.76912082  0.74883643  0.28109235    -0.73700
O561        O  0.73026729  0.66810293  0.34747797    -0.53000
O562        O  0.69189551  0.71483136  0.31369873    -0.97700
O563        O  0.69457408  0.78829290  0.31444135    -0.54900
O564        O  0.72630296  0.74974946  0.28136485    -0.74200
C565        C  0.74750855  0.74887805  0.26614685     0.98100
O566        O  0.82472077  0.75473003  0.30644268    -0.63000
O567        O  0.76969902  0.82949344  0.43211689    -0.57800
O568        O  0.81007243  0.78880869  0.33600969    -0.94500
O569        O  0.78800023  0.81914758  0.36356013    -0.93000
O570        O  0.81226047  0.78223065  0.46360474    -0.93300
O571        O  0.83563310  0.74446574  0.43197345    -0.92100
C572        C  0.80681897  0.81171213  0.34572245     1.17000
H573        H  0.75419419  0.78369660  0.46130321     0.32900
H574        H  0.80385353  0.71276732  0.38835263     0.43800
H575        H  0.75047867  0.78828665  0.32110762     0.37300
H576        H  0.69932393  0.71390790  0.38494188     0.33800
H577        H  0.81790560  0.71523546  0.48478584     0.25500
H578        H  0.73197000  0.65148266  0.35848064     0.31500
H579        H  0.68396383  0.72148640  0.29296995     0.37400
H580        H  0.80396285  0.78549031  0.48545956     0.31900
H581        H  0.78776334  0.82495179  0.43431091     0.30700
H582        H  0.73712514  0.84727787  0.36769116     0.32400
H583        H  0.70721902  0.79480271  0.29833664     0.31400
H584        H  0.83812065  0.74510715  0.40731725     0.35400
H585        H  0.83810729  0.74603863  0.31941303     0.28100
H586        H  0.68155390  0.73547430  0.49075325     0.32300
H587        H  0.65999603  0.75359460  0.32737406     0.35200
H588        H  0.76975666  0.84571201  0.41989398     0.27800
H589        H  0.82242342  0.74446203  0.28585948     0.40700
H590        H  0.79051840  0.66986075  0.41814066     0.30700
H591        H  0.79412418  0.69950132  0.47431906     0.38400
H592        H  0.69448976  0.80077264  0.33295133     0.30200
H593        H  0.71207849  0.67221655  0.34929421     0.30300
H594        H  0.66574661  0.74087376  0.45800890     0.30500
Zr595      Zr  0.71412502  0.75059765  0.93626838     2.17500
O596        O  0.67364502  0.75375681  0.96528175    -0.51800
O597        O  0.72631174  0.75060398  0.99564966    -0.75000
O598        O  0.69255971  0.70981648  0.94110983    -0.81800
O599        O  0.71285914  0.82044012  0.91291086    -0.83600
O600        O  0.71756838  0.67948735  0.91864421    -0.79200
O601        O  0.68885854  0.78917324  0.93508904    -0.90800
O602        O  0.76899105  0.74910725  0.99957923    -0.76800
O603        O  0.75045544  0.72430325  0.94034945    -0.86300
O604        O  0.74989912  0.77794745  0.94119811    -0.86000
O605        O  0.71399077  0.72629884  0.88497660    -0.72700
O606        O  0.71457274  0.77574206  0.88619531    -0.84900
Zr607      Zr  0.78745004  0.75118234  0.84286698     2.26400
Zr608      Zr  0.75110126  0.70062414  0.88918496     2.06300
Zr609      Zr  0.75092278  0.80205318  0.89050038     2.10000
Zr610      Zr  0.78615630  0.75153379  0.94374774     1.78800
O611        O  0.73660013  0.83635804  0.85466855    -0.93700
O612        O  0.80724949  0.71568986  0.96961163    -0.41500
O613        O  0.78738487  0.77591700  0.89349815    -0.78100
O614        O  0.78799459  0.72657814  0.89386226    -0.96800
O615        O  0.75133086  0.72473224  0.83847472    -0.90100
O616        O  0.75163836  0.77838768  0.83919722    -0.92900
C617        C  0.74694420  0.74946143  0.01268997     1.00800
C618        C  0.69253884  0.81224888  0.92660663     1.13800
C619        C  0.69749439  0.68674250  0.93369952     1.04500
O620        O  0.76967920  0.66933537  0.92644220    -0.95100
O621        O  0.78469458  0.68033028  0.85879477    -0.90800
O622        O  0.80986513  0.71100286  0.83740777    -0.84000
C623        C  0.80466100  0.68782374  0.84368326     1.11200
O624        O  0.66962595  0.75427582  0.83991488    -0.97100
Zr625      Zr  0.71551231  0.75171598  0.83563763     1.88900
O626        O  0.77446232  0.75025470  0.78358064    -0.73700
O627        O  0.73341684  0.66959493  0.85057256    -0.53000
O628        O  0.69527932  0.71494504  0.81066770    -0.97700
O629        O  0.69815722  0.78846455  0.80707390    -0.54900
O630        O  0.73179138  0.74887140  0.77953108    -0.74200
C631        C  0.75383109  0.74901671  0.76646000     0.98100
O632        O  0.82712483  0.75554101  0.81220972    -0.63000
O633        O  0.76698622  0.83146441  0.93254601    -0.57800
O634        O  0.81188741  0.79018163  0.84291240    -0.94500
O635        O  0.78724833  0.82118018  0.86439191    -0.93000
O636        O  0.80435572  0.78869051  0.97047703    -0.93300
O637        O  0.83204803  0.75386466  0.94073710    -0.92100
C638        C  0.80757551  0.81332049  0.85040659     1.17000
H639        H  0.74857821  0.78874939  0.96066608     0.32900
H640        H  0.80310722  0.71661713  0.89642323     0.43800
H641        H  0.75294557  0.78945528  0.82003033     0.37300
H642        H  0.69893908  0.71624548  0.88220011     0.33800
H643        H  0.81157258  0.72135616  0.99265341     0.25500
H644        H  0.73674976  0.65314611  0.86136582     0.31500
H645        H  0.70940790  0.70433236  0.80265316     0.37400
H646        H  0.79331913  0.79233558  0.98994074     0.31900
H647        H  0.78557045  0.82938663  0.93196450     0.30700
H648        H  0.73962547  0.85182013  0.86802406     0.32400
H649        H  0.71177739  0.79459800  0.79215576     0.31400
H650        H  0.83566722  0.75682749  0.91664229     0.35400
H651        H  0.84037593  0.74868594  0.82723953     0.28100
H652        H  0.67472027  0.74199299  0.98451845     0.32300
H653        H  0.66325624  0.75362152  0.81649438     0.35200
H654        H  0.76400723  0.84833767  0.92279803     0.27800
H655        H  0.82607703  0.74347113  0.79325799     0.40700
H656        H  0.76923483  0.65342013  0.91346678     0.30700
H657        H  0.79372209  0.70304445  0.97282891     0.38400
H658        H  0.69682973  0.80146421  0.82484580     0.30200
H659        H  0.71487802  0.67176723  0.85211390     0.30300
H660        H  0.66099187  0.74619455  0.94989005     0.30500
Zr661      Zr  0.71461460  0.25191313  0.07892744     2.17500
O662        O  0.67456009  0.24869824  0.04860105    -0.51800
O663        O  0.72913387  0.25048916  0.02050906    -0.75000
O664        O  0.69382253  0.29256924  0.07090045    -0.81800
O665        O  0.71356420  0.18130389  0.09825715    -0.83600
O666        O  0.71815872  0.32301466  0.09474894    -0.79200
O667        O  0.68981904  0.21300555  0.07653329    -0.90800
O668        O  0.77187035  0.24866863  0.01885914    -0.76800
O669        O  0.75115116  0.27825420  0.07716344    -0.86300
O670        O  0.75017574  0.22444969  0.07690860    -0.86000
O671        O  0.71292444  0.27664014  0.12987693    -0.72700
O672        O  0.71254841  0.22707870  0.12917300    -0.84900
Zr673      Zr  0.78465303  0.25102735  0.17691390     2.26400
Zr674      Zr  0.75026332  0.30225823  0.12828416     2.06300
Zr675      Zr  0.74880131  0.20047843  0.12761152     2.10000
Zr676      Zr  0.78662553  0.25061962  0.07606574     1.78800
O677        O  0.73088437  0.17067529  0.16745021    -0.93700
O678        O  0.80604321  0.28570608  0.04626529    -0.41500
O679        O  0.78605249  0.22608047  0.12637676    -0.78100
O680        O  0.78663740  0.27557942  0.12597521    -0.96800
O681        O  0.74881840  0.27811483  0.17896926    -0.90100
O682        O  0.74828335  0.22442177  0.17855591    -0.92900
C683        C  0.75021646  0.24916891  0.00455608     1.00800
C684        C  0.69385949  0.18965160  0.08308742     1.13800
C685        C  0.69879431  0.31568338  0.07786364     1.04500
O686        O  0.77246275  0.33397419  0.09546930    -0.95100
O687        O  0.78345649  0.32215391  0.16110028    -0.90800
O688        O  0.80702169  0.29104658  0.18459584    -0.84000
C689        C  0.80285535  0.31429929  0.17744166     1.11200
O690        O  0.66686319  0.25600542  0.17335162    -0.97100
Zr691      Zr  0.71251937  0.25154852  0.17960943     1.88900
O692        O  0.77019592  0.24908814  0.23554921    -0.73700
O693        O  0.72979935  0.33299941  0.16465407    -0.53000
O694        O  0.69718276  0.28842722  0.20982850    -0.97700
O695        O  0.68966217  0.21514749  0.20120863    -0.54900
O696        O  0.72737197  0.24778737  0.23649850    -0.74200
C697        C  0.74892392  0.24783543  0.25112404     0.98100
O698        O  0.82495594  0.25417992  0.20664662    -0.63000
O699        O  0.76392521  0.16792524  0.08945195    -0.57800
O700        O  0.80798780  0.21116622  0.17883880    -0.94500
O701        O  0.78429321  0.18040603  0.15457714    -0.93000
O702        O  0.80654629  0.21279581  0.05391903    -0.93300
O703        O  0.83241218  0.25259283  0.08222602    -0.92100
C704        C  0.80392621  0.18810277  0.17049044     1.17000
H705        H  0.74947042  0.21336456  0.05764864     0.32900
H706        H  0.80193037  0.28541816  0.12457180     0.43800
H707        H  0.74875841  0.21323942  0.19767328     0.37300
H708        H  0.69789218  0.28685563  0.13117025     0.33800
H709        H  0.81502902  0.27788218  0.02709473     0.25500
H710        H  0.73174258  0.34925236  0.15278000     0.25100
H711        H  0.68977608  0.28177846  0.23087105     0.37400
H712        H  0.81500395  0.21834226  0.03301164     0.31900
H713        H  0.78235152  0.17085109  0.08766170     0.30700
H714        H  0.73411471  0.15393614  0.15739002     0.32400
H715        H  0.70250584  0.20507080  0.21329276     0.31400
H716        H  0.83640119  0.24018752  0.10001325     0.35400
H717        H  0.82441381  0.24127732  0.22457161     0.28100
H718        H  0.67610650  0.25999428  0.02892918     0.32300
H719        H  0.65987131  0.25510646  0.19639388     0.35200
H720        H  0.76235175  0.15203305  0.10224663     0.27800
H721        H  0.83795716  0.24821884  0.19062877     0.40700
H722        H  0.76615804  0.33178176  0.07219485     0.30700
H723        H  0.79176038  0.29483371  0.03577955     0.38400
H724        H  0.68547543  0.20498872  0.18105239     0.30200
H725        H  0.71153131  0.32911742  0.16306064     0.30300
H726        H  0.66173733  0.25668166  0.06324247     0.30500
Zr727      Zr  0.71189762  0.25142973  0.58025976     2.17500
O728        O  0.67013433  0.24916874  0.55405602    -0.51800
O729        O  0.72461848  0.25183302  0.52101921    -0.75000
O730        O  0.69102235  0.29217592  0.57449452    -0.81800
O731        O  0.71245781  0.18106184  0.59815026    -0.83600
O732        O  0.71355508  0.32237962  0.60169701    -0.79200
O733        O  0.68785711  0.21215323  0.57670260    -0.90800
O734        O  0.76730404  0.25414064  0.51826531    -0.76800
O735        O  0.74745431  0.27894895  0.57896500    -0.86300
O736        O  0.74825658  0.22515448  0.57503139    -0.86000
O737        O  0.71075085  0.27429517  0.63276883    -0.72700
O738        O  0.71208239  0.22494300  0.62905274    -0.84900
Zr739      Zr  0.78457537  0.24932716  0.67523422     2.26400
Zr740      Zr  0.74725289  0.30109734  0.63151838     2.06300
Zr741      Zr  0.74908996  0.19961565  0.62448220     2.10000
Zr742      Zr  0.78371826  0.25272297  0.57458029     1.78800
O743        O  0.73324318  0.16474019  0.65809001    -0.93700
O744        O  0.80106001  0.29085637  0.54959641    -0.41500
O745        O  0.78534738  0.22635991  0.62319921    -0.78100
O746        O  0.78462969  0.27587084  0.62593590    -0.96800
O747        O  0.74789786  0.27506850  0.68048022    -0.90100
O748        O  0.74905334  0.22169532  0.67688463    -0.92900
C749        C  0.74547205  0.25316573  0.50453642     1.00800
C750        C  0.69225908  0.18894845  0.58377581     1.13800
C751        C  0.69479365  0.31507647  0.58365441     1.04500
O752        O  0.76475539  0.33534400  0.59819043    -0.95100
O753        O  0.78077350  0.32094612  0.66366125    -0.90800
O754        O  0.80583072  0.28969504  0.68380921    -0.84000
C755        C  0.80076657  0.31301579  0.67855579     1.11200
O756        O  0.66644912  0.24920747  0.67773254    -0.97100
Zr757      Zr  0.71244884  0.24747775  0.68084988     1.88900
O758        O  0.77209892  0.24837763  0.73461538    -0.73700
O759        O  0.72754438  0.32868740  0.67275989    -0.53000
O760        O  0.69351699  0.28150265  0.71330932    -0.97700
O761        O  0.69349791  0.20848025  0.70108389    -0.54900
O762        O  0.72941561  0.24557186  0.73674044    -0.74200
C763        C  0.75113495  0.24684218  0.75080421     0.98100
O764        O  0.82587688  0.24515120  0.70213299    -0.63000
O765        O  0.76770873  0.17157348  0.58286463    -0.57800
O766        O  0.80844362  0.20978857  0.67557445    -0.94500
O767        O  0.78323287  0.17915715  0.65392319    -0.93000
O768        O  0.80426679  0.21694173  0.54783707    -0.93300
O769        O  0.82966957  0.25421804  0.57663923    -0.92100
C770        C  0.80349648  0.18664220  0.66853688     1.17000
H771        H  0.74747358  0.21476466  0.55509835     0.32900
H772        H  0.79954786  0.28623572  0.62424110     0.43800
H773        H  0.75037060  0.21005551  0.69543631     0.37300
H774        H  0.69542133  0.28395385  0.63514429     0.33800
H775        H  0.80597235  0.28594691  0.52648925     0.25500
H776        H  0.72880293  0.34573311  0.66287456     0.31500
H777        H  0.70794222  0.29054915  0.72366032     0.37400
H778        H  0.80513852  0.22131783  0.52367948     0.31900
H779        H  0.78617470  0.17401873  0.58529020     0.30700
H780        H  0.73866022  0.14940536  0.64591506     0.32400
H781        H  0.70743039  0.19914172  0.71202726     0.31400
H782        H  0.83377002  0.25602627  0.60082791     0.35400
H783        H  0.83812050  0.25294273  0.68646989     0.28100
H784        H  0.67060175  0.26073519  0.53456133     0.32300
H785        H  0.66036820  0.24531759  0.70068172     0.35200
H786        H  0.76458129  0.15443041  0.59165409     0.27800
H787        H  0.82556315  0.25640576  0.72199906     0.40700
H788        H  0.78326545  0.33265724  0.59856807     0.30700
H789        H  0.78634143  0.30209878  0.54644674     0.38400
H790        H  0.68963938  0.19867537  0.68050403     0.30200
H791        H  0.70931769  0.32453477  0.67170477     0.30300
H792        H  0.65827415  0.25699546  0.57021491     0.30500
Zr793      Zr  0.50229266  0.46508126  0.04869515     2.17500
O794        O  0.49917157  0.42558658  0.07970403    -0.51800
O795        O  0.50029286  0.47972205  0.10723241    -0.75000
O796        O  0.54333595  0.44415674  0.05596872    -0.81800
O797        O  0.43208350  0.46338219  0.02640468    -0.83600
O798        O  0.57378319  0.46785721  0.03111574    -0.79200
O799        O  0.46350712  0.43990057  0.04954829    -0.90800
O800        O  0.49807295  0.52229816  0.10766772    -0.76800
O801        O  0.52862903  0.50149241  0.05042358    -0.86300
O802        O  0.47464541  0.50063798  0.04970141    -0.86000
O803        O  0.52716135  0.46322753  0.99790534    -0.72700
O804        O  0.47742455  0.46303386  0.99821710    -0.84900
Zr805      Zr  0.50200850  0.53403433  0.94963465     2.26400
Zr806      Zr  0.55287040  0.50048558  0.99967365     2.06300
Zr807      Zr  0.45076393  0.49926467  0.99862438     2.10000
Zr808      Zr  0.50107730  0.53687066  0.05056090     1.78800
O809        O  0.41806222  0.48166734  0.96233936    -0.93700
O810        O  0.53691677  0.55480181  0.08089248    -0.41500
O811        O  0.47681797  0.53596705  0.99982575    -0.78100
O812        O  0.52638318  0.53696675  0.00085221    -0.96800
O813        O  0.52892378  0.49821367  0.94863088    -0.90100
O814        O  0.47503369  0.49801535  0.94803859    -0.92900
C815        C  0.49851169  0.50098644  0.12258837     1.00800
C816        C  0.44022491  0.44377180  0.04177293     1.13800
C817        C  0.56646443  0.44866798  0.04795272     1.04500
O818        O  0.58207254  0.52089276  0.03853063    -0.95100
O819        O  0.57390504  0.53291053  0.96754181    -0.90800
O820        O  0.54278915  0.55531684  0.94208455    -0.84000
C821        C  0.56607156  0.55158671  0.95003962     1.11200
O822        O  0.50460413  0.41659451  0.95370889    -0.97100
Zr823      Zr  0.50201026  0.46221646  0.94816576     1.88900
O824        O  0.50039502  0.51875264  0.89146106    -0.73700
O825        O  0.58567010  0.48283732  0.96382952    -0.53000
O826        O  0.53847188  0.44325875  0.92073167    -0.97700
O827        O  0.46387830  0.44161865  0.92719178    -0.54900
O828        O  0.50067300  0.47611499  0.89092677    -0.74200
C829        C  0.50016352  0.49742639  0.87609869     0.98100
O830        O  0.49911899  0.57269183  0.91667756    -0.63000
O831        O  0.41948650  0.51638980  0.03721022    -0.57800
O832        O  0.46299225  0.55853485  0.94879022    -0.94500
O833        O  0.43124467  0.53394316  0.96872516    -0.93000
O834        O  0.46333967  0.55742207  0.07225190    -0.93300
O835        O  0.50427034  0.58241406  0.04488534    -0.92100
C836        C  0.43954724  0.55414827  0.95496477     1.17000
H837        H  0.46339648  0.50012894  0.06878453     0.32900
H838        H  0.53622574  0.55223704  0.00215041     0.43800
H839        H  0.46394465  0.49833585  0.92872566     0.37300
H840        H  0.53731329  0.44820645  0.99635664     0.33800
H841        H  0.52950324  0.56265507  0.10119724     0.25500
H842        H  0.60156916  0.48521375  0.97663148     0.31500
H843        H  0.54996997  0.45750579  0.91592563     0.37400
H844        H  0.45652857  0.56720680  0.05310161     0.31900
H845        H  0.42346334  0.53455954  0.03862691     0.30700
H846        H  0.40211343  0.48923826  0.97047990     0.32400
H847        H  0.45551173  0.45423265  0.91266832     0.31400
H848        H  0.49782118  0.58593972  0.02197767     0.35400
H849        H  0.50701851  0.58606528  0.93055074     0.28100
H850        H  0.51070652  0.42735544  0.09920679     0.32300
H851        H  0.50180647  0.40979230  0.93079667     0.35200
H852        H  0.40332216  0.51564158  0.02466470     0.27800
H853        H  0.51063911  0.57037898  0.89732649     0.40700
H854        H  0.57923341  0.53915062  0.03536001     0.30700
H855        H  0.54640389  0.54012493  0.08957415     0.38400
H856        H  0.45269626  0.44015525  0.94702310     0.30200
H857        H  0.58268271  0.46444280  0.96411615     0.30300
H858        H  0.50705462  0.41263345  0.06519392     0.30500
Zr859      Zr  0.49748511  0.46399016  0.54666123     2.17500
O860        O  0.49214838  0.42291232  0.57318631    -0.51800
O861        O  0.49796888  0.47625813  0.60590631    -0.75000
O862        O  0.53733563  0.44129405  0.55323325    -0.81800
O863        O  0.42627646  0.46789997  0.52911310    -0.83600
O864        O  0.56887137  0.46447987  0.53001739    -0.79200
O865        O  0.45714646  0.44171512  0.54801386    -0.90800
O866        O  0.50164827  0.51865381  0.60938193    -0.76800
O867        O  0.52591087  0.49876087  0.54957358    -0.86300
O868        O  0.47209170  0.50086597  0.55165787    -0.86000
O869        O  0.52119807  0.46213167  0.49505785    -0.72700
O870        O  0.47156890  0.46502171  0.49716015    -0.84900
Zr871      Zr  0.49950421  0.53652417  0.45256391     2.26400
Zr872      Zr  0.54910536  0.49771808  0.49791873     2.06300
Zr873      Zr  0.44723009  0.50266370  0.50161555     2.10000
Zr874      Zr  0.50033901  0.53555702  0.55341259     1.78800
O875        O  0.41406526  0.48800504  0.46385106    -0.93700
O876        O  0.53712331  0.55498153  0.57980209    -0.41500
O877        O  0.47511344  0.53813251  0.50364581    -0.78100
O878        O  0.52474479  0.53548934  0.50317290    -0.96800
O879        O  0.52413981  0.49922006  0.44770892    -0.90100
O880        O  0.47045081  0.50220649  0.44999647    -0.92900
C881        C  0.49987531  0.49684863  0.62271988     1.00800
C882        C  0.43390382  0.44719758  0.54212869     1.13800
C883        C  0.56068950  0.44533149  0.54626449     1.04500
O884        O  0.58387844  0.51446561  0.53135642    -0.95100
O885        O  0.57078910  0.53116188  0.46821676    -0.90800
O886        O  0.54083384  0.55724208  0.44669500    -0.84000
C887        C  0.56396367  0.55153502  0.45346043     1.11200
O888        O  0.49407469  0.41900657  0.44686895    -0.97100
Zr889      Zr  0.49507385  0.46490262  0.44607071     1.88900
O890        O  0.49707657  0.52372342  0.39321344    -0.73700
O891        O  0.57649760  0.47602040  0.45818893    -0.53000
O892        O  0.53047298  0.44572953  0.41654224    -0.97700
O893        O  0.45570587  0.44786241  0.42330685    -0.54900
O894        O  0.49367305  0.48127552  0.38995786    -0.74200
C895        C  0.49503112  0.50305063  0.37647621     0.98100
O896        O  0.50357186  0.57717029  0.42445726    -0.63000
O897        O  0.41752396  0.51980955  0.54237395    -0.57800
O898        O  0.46018551  0.56069386  0.45005484    -0.94500
O899        O  0.42856884  0.53887628  0.47522659    -0.93000
O900        O  0.46375134  0.55398654  0.58111242    -0.93300
O901        O  0.50023350  0.58130616  0.54982796    -0.92100
C902        C  0.43696201  0.55774475  0.45863828     1.17000
H903        H  0.46138353  0.50023151  0.57128330     0.32900
H904        H  0.53550092  0.55004251  0.50563193     0.43800
H905        H  0.45908531  0.50408392  0.43113616     0.37300
H906        H  0.53051182  0.44660734  0.49288340     0.33800
H907        H  0.53107437  0.56083738  0.60202459     0.25500
H908        H  0.59322954  0.47552843  0.46935579     0.31500
H909        H  0.53945525  0.45993985  0.40577811     0.37400
H910        H  0.46932237  0.55725543  0.60450081     0.31900
H911        H  0.42171624  0.53793781  0.54384502     0.30700
H912        H  0.39810862  0.49174807  0.47579630     0.32400
H913        H  0.44472630  0.46258589  0.41911367     0.31400
H914        H  0.49219783  0.58500642  0.52787491     0.35400
H915        H  0.49071616  0.57727856  0.40631436     0.28100
H916        H  0.50266869  0.42336796  0.59380112     0.32300
H917        H  0.49198586  0.41378625  0.42309819     0.35200
H918        H  0.40091801  0.51927245  0.53087262     0.27800
H919        H  0.49782231  0.58995820  0.44088713     0.40700
H920        H  0.59930294  0.50743693  0.52089111     0.30700
H921        H  0.54855030  0.54076329  0.58501016     0.38400
H922        H  0.44760501  0.43907248  0.44240343     0.30200
H923        H  0.57063033  0.45832591  0.45844168     0.30300
H924        H  0.50052256  0.41060125  0.55818048     0.30500
Zr925      Zr  0.99714666  0.53634352  0.29617832     2.17500
O926        O  0.99980643  0.57896961  0.31895000    -0.51800
O927        O  0.99672137  0.52396044  0.35571901    -0.75000
O928        O  0.95598989  0.55665069  0.30302400    -0.81800
O929        O  0.06833932  0.53593125  0.27977885    -0.83600
O930        O  0.92608774  0.53351073  0.27601204    -0.79200
O931        O  0.03664918  0.55962592  0.30165109    -0.90800
O932        O  0.99603092  0.48135383  0.35771115    -0.76800
O933        O  0.96969885  0.50075786  0.29688433    -0.86300
O934        O  0.02383652  0.50034219  0.30126453    -0.86000
O935        O  0.97454630  0.53796107  0.24342021    -0.72700
O936        O  0.02392877  0.53654555  0.24744464    -0.84900
Zr937      Zr  0.00001979  0.46485875  0.20082825     2.26400
Zr938      Zr  0.94783391  0.50147183  0.24401405     2.06300
Zr939      Zr  0.04976173  0.49996446  0.25212701     2.10000
Zr940      Zr  0.99642569  0.46487071  0.30129616     1.78800
O941        O  0.08453561  0.51575663  0.21812497    -0.93700
O942        O  0.95874310  0.44687961  0.32699427    -0.41500
O943        O  0.02306309  0.46374423  0.25288175    -0.78100
O944        O  0.97329043  0.46437221  0.24985823    -0.96800
O945        O  0.97398178  0.50119194  0.19500273    -0.90100
O946        O  0.02766098  0.50034782  0.19966058    -0.92900
C947        C  0.99627190  0.50299425  0.37190542     1.00800
C948        C  0.06002461  0.55558127  0.29484388     1.13800
C949        C  0.93302931  0.55227314  0.29412807     1.04500
O950        O  0.91200949  0.48353364  0.27391618    -0.95100
O951        O  0.92806943  0.46783993  0.21233360    -0.90800
O952        O  0.95956777  0.44352006  0.19131253    -0.84000
C953        C  0.93612098  0.44808653  0.19720715     1.11200
O954        O  0.00451850  0.58232972  0.19980441    -0.97100
Zr955      Zr  0.00159037  0.53663273  0.19522909     1.88900
O956        O  0.00144091  0.47759055  0.14197110    -0.73700
O957        O  0.92097299  0.52267679  0.20308438    -0.53000
O958        O  0.96566368  0.55647254  0.16747105    -0.97700
O959        O  0.03984222  0.55448823  0.17069086    -0.54900
O960        O  0.00271549  0.52017305  0.13872354    -0.74200
C961        C  0.00244791  0.49826060  0.12532743     0.98100
O962        O  0.00464201  0.42325222  0.17549672    -0.63000
O963        O  0.07825509  0.48210593  0.29392109    -0.57800
O964        O  0.04008522  0.44207599  0.19823314    -0.94500
O965        O  0.07050999  0.46574855  0.22338581    -0.93000
O966        O  0.03214897  0.44333574  0.32704890    -0.93300
O967        O  0.99466214  0.41915921  0.29733291    -0.92100
C968        C  0.06314306  0.44639044  0.20678634     1.17000
H969        H  0.03419895  0.50116456  0.32126825     0.32900
H970        H  0.96299847  0.44941347  0.25126677     0.43800
H971        H  0.03940712  0.49923418  0.18115626     0.37300
H972        H  0.96467463  0.55316981  0.24153237     0.33800
H973        H  0.96467089  0.43974671  0.34860512     0.25500
H974        H  0.90366111  0.51681287  0.20835431     0.31500
H975        H  0.97129758  0.55953514  0.14410470     0.37400
H976        H  0.03961929  0.45573928  0.34279344     0.31900
H977        H  0.07495397  0.46377232  0.29313837     0.30700
H978        H  0.10000810  0.50986377  0.22972176     0.32400
H979        H  0.04422871  0.54343846  0.15151903     0.31400
H980        H  0.00258628  0.41520841  0.27541715     0.35400
H981        H  0.99596211  0.41141704  0.19084861     0.28100
H982        H  0.98878781  0.57925153  0.33903751     0.32300
H983        H  0.00401173  0.58873004  0.17643774     0.35200
H984        H  0.09532672  0.48404717  0.28411908     0.27800
H985        H  0.99422719  0.42346692  0.15478068     0.40700
H986        H  0.91783747  0.46668746  0.28115111     0.30700
H987        H  0.94834908  0.46156163  0.33355371     0.38400
H988        H  0.05321504  0.55125343  0.18757234     0.30200
H989        H  0.92110990  0.54062562  0.20980557     0.30300
H990        H  0.99131911  0.58994170  0.30228480     0.30500
Zr991      Zr  0.99684423  0.53550038  0.79847521     2.17500
O992        O  0.00146954  0.57606831  0.82681007    -0.51800
O993        O  0.99800865  0.52119783  0.85693892    -0.75000
O994        O  0.95647186  0.55690242  0.80787615    -0.81800
O995        O  0.06791449  0.53469434  0.77757547    -0.83600
O996        O  0.92512602  0.53398392  0.78357112    -0.79200
O997        O  0.03662694  0.55869819  0.79991413    -0.90800
O998        O  0.99374558  0.47874005  0.85782258    -0.76800
O999        O  0.96975115  0.49971273  0.80077814    -0.86300
O1000       O  0.02386986  0.49957664  0.79970389    -0.86000
O1001       O  0.97160670  0.53796970  0.74803211    -0.72700
O1002       O  0.02138242  0.53694777  0.74784604    -0.84900
Zr1003     Zr  0.99475758  0.46638653  0.70033785     2.26400
Zr1004     Zr  0.94496283  0.50140947  0.75036810     2.06300
Zr1005     Zr  0.04745869  0.50032675  0.74848472     2.10000
Zr1006     Zr  0.99683855  0.46389519  0.80088300     1.78800
O1007       O  0.07749368  0.51916131  0.70954867    -0.93700
O1008       O  0.96180601  0.44013632  0.82473333    -0.41500
O1009       O  0.02070509  0.46409759  0.75003729    -0.78100
O1010       O  0.97093738  0.46464559  0.75188776    -0.96800
O1011       O  0.96852298  0.50273526  0.69906295    -0.90100
O1012       O  0.02262301  0.50158025  0.69806432    -0.92900
C1013       C  0.99568898  0.50011209  0.87245648     1.00800
C1014       C  0.05988436  0.55451670  0.79251286     1.13800
C1015       C  0.93309067  0.55278030  0.80086027     1.04500
O1016       O  0.91416234  0.48068805  0.78638617    -0.95100
O1017       O  0.92381428  0.46807877  0.71952888    -0.90800
O1018       O  0.95427411  0.44462631  0.69438517    -0.84000
C1019       C  0.93118517  0.44875706  0.70281135     1.11200
O1020       O  0.99959144  0.58350847  0.70480943    -0.97100
Zr1021     Zr  0.99642495  0.53800836  0.69785203     1.88900
O1022       O  0.99410788  0.48149795  0.64202064    -0.73700
O1023       O  0.91290634  0.52115114  0.71515367    -0.53000
O1024       O  0.96010321  0.56014304  0.67460435    -0.97700
O1025       O  0.03406677  0.55493799  0.67056796    -0.54900
O1026       O  0.99330808  0.52411494  0.64042392    -0.74200
C1027       C  0.99323777  0.50256284  0.62607074     0.98100
O1028       O  0.99103532  0.42664564  0.66977217    -0.63000
O1029       O  0.08037545  0.48394054  0.78541984    -0.57800
O1030       O  0.03428178  0.44255540  0.69671071    -0.94500
O1031       O  0.06642078  0.46456488  0.72075957    -0.93000
O1032       O  0.03368459  0.44750497  0.83031073    -0.93300
O1033       O  0.00135399  0.41878505  0.79176078    -0.92100
C1034       C  0.05765951  0.44553242  0.70469862     1.17000
H1035       H  0.03503607  0.50000036  0.81891564     0.32900
H1036       H  0.96086604  0.44957659  0.75378202     0.43800
H1037       H  0.03327601  0.50054854  0.67842957     0.37300
H1038       H  0.96172864  0.55321348  0.74710780     0.33800
H1039       H  0.96903326  0.43176541  0.84479555     0.25500
H1040       H  0.89677830  0.51805787  0.72704683     0.31500
H1041       H  0.94957708  0.54683123  0.66416219     0.37400
H1042       H  0.04505593  0.44151777  0.81227375     0.31900
H1043       H  0.07845837  0.46541894  0.78473049     0.30700
H1044       H  0.08100911  0.50604579  0.69249583     0.32400
H1045       H  0.04174801  0.54076125  0.65809300     0.31400
H1046       H  0.99571773  0.41606498  0.76827001     0.35400
H1047       H  0.00360288  0.42741742  0.65138790     0.28100
H1048       H  0.99104440  0.57499281  0.84740425     0.32300
H1049       H  0.00090373  0.59042873  0.68176971     0.35200
H1050       H  0.09636557  0.48727061  0.77332150     0.27800
H1051       H  0.99726968  0.41341985  0.68522758     0.40700
H1052       H  0.91864914  0.48600483  0.80951224     0.30700
H1053       H  0.95029516  0.45306263  0.83399984     0.38400
H1054       H  0.04602039  0.55840901  0.68919756     0.30200
H1055       H  0.91585205  0.53947447  0.71753691     0.30300
H1056       H  0.99280746  0.58852332  0.81231159     0.30500
C1057       C  0.99602704  0.50309217  0.40939475    -0.01800
C1058       C  0.99590279  0.48006514  0.42670077    -0.09800
C1059       C  0.99511260  0.47915320  0.46165197    -0.18600
C1060       C  0.99443166  0.50138378  0.48105168     0.03800
C1061       C  0.99511578  0.52480512  0.46372338     0.17900
C1062       C  0.99581364  0.52548466  0.42823362    -0.20100
C1063       C  0.99511124  0.54736206  0.48197845    -0.21300
C1064       C  0.99446324  0.54715004  0.51699536    -0.19900
C1065       C  0.99357380  0.52437826  0.53470345     0.19300
C1066       C  0.99332150  0.50115586  0.51699507     0.01500
C1067       C  0.99193855  0.47871012  0.53606864    -0.14600
C1068       C  0.99157507  0.47928131  0.57116717    -0.12300
C1069       C  0.99247113  0.50215285  0.58865644     0.01000
C1070       C  0.99312727  0.52468684  0.57008366    -0.24500
H1071       H  0.99633028  0.46236016  0.41318443     0.09000
H1072       H  0.99517616  0.46065173  0.47265273     0.12600
H1073       H  0.99611988  0.54344603  0.41534761     0.11300
H1074       H  0.99571887  0.56530921  0.46909046     0.12500
H1075       H  0.99463972  0.56495400  0.53033360     0.11500
H1076       H  0.99112264  0.46032659  0.52469513     0.08600
H1077       H  0.99076079  0.46160417  0.58465021     0.11900
H1078       H  0.99361271  0.54260922  0.58313804     0.13700
C1079       C  0.99558182  0.49994952  0.90970205    -0.01800
C1080       C  0.98661105  0.47872909  0.92689727    -0.09800
C1081       C  0.98779431  0.47733813  0.96183281    -0.18600
C1082       C  0.99823456  0.49719427  0.98100578     0.03800
C1083       C  0.00680048  0.51896491  0.96357532     0.17900
C1084       C  0.00532871  0.52019033  0.92829827    -0.20100
C1085       C  0.01694693  0.53931750  0.98144257    -0.21300
C1086       C  0.01855280  0.53864925  0.01631395    -0.19900
C1087       C  0.01020797  0.51754372  0.03416885     0.19300
C1088       C  0.00027509  0.49632724  0.01681054     0.01500
C1089       C  0.99279685  0.47522356  0.03610617    -0.14600
C1090       C  0.99418467  0.47562413  0.07116672    -0.12300
C1091       C  0.00298347  0.49699891  0.08816619     0.01000
C1092       C  0.01141637  0.51770648  0.06940821    -0.24500
H1093       H  0.97865232  0.46292760  0.91324517     0.09000
H1094       H  0.98037271  0.46043245  0.97300386     0.12600
H1095       H  0.01231791  0.53670412  0.91529017     0.11300
H1096       H  0.02355909  0.55594327  0.96836693     0.12500
H1097       H  0.02628702  0.55482069  0.02943383     0.11500
H1098       H  0.98563909  0.45816090  0.02494170     0.08600
H1099       H  0.98771627  0.45932188  0.08504211     0.11900
H1100       H  0.01872774  0.53418858  0.08229677     0.13700
C1101       C  0.49926895  0.49693562  0.83883081    -0.01800
C1102       C  0.49778154  0.47380312  0.82181558    -0.09800
C1103       C  0.49750097  0.47270479  0.78683792    -0.18600
C1104       C  0.49871009  0.49484946  0.76737141     0.03800
C1105       C  0.49990238  0.51832162  0.78463908     0.17900
C1106       C  0.50016609  0.51916411  0.81996542    -0.20100
C1107       C  0.50094296  0.54083954  0.76655176    -0.21300
C1108       C  0.50096113  0.54058396  0.73164286    -0.19900
C1109       C  0.50005502  0.51780014  0.71396262     0.19300
C1110       C  0.49887126  0.49456340  0.73145527     0.01500
C1111       C  0.49805088  0.47212387  0.71217589    -0.14600
C1112       C  0.49846438  0.47281732  0.67705597    -0.12300
C1113       C  0.49969620  0.49580920  0.65997339     0.01000
C1114       C  0.50042147  0.51820741  0.67876064    -0.24500
H1115       H  0.49690602  0.45624630  0.83556750     0.09000
H1116       H  0.49637402  0.45419239  0.77587225     0.12600
H1117       H  0.50126404  0.53718035  0.83273243     0.11300
H1118       H  0.50180485  0.55878911  0.77949363     0.12500
H1119       H  0.50181888  0.55836181  0.71836089     0.11500
H1120       H  0.49715484  0.45371565  0.72340384     0.08600
H1121       H  0.49782204  0.45523055  0.66326711     0.11900
H1122       H  0.50126675  0.53620386  0.66599465     0.13700
C1123       C  0.49672280  0.50146087  0.15993117    -0.01800
C1124       C  0.49237096  0.52436349  0.17663205    -0.09800
C1125       C  0.49121130  0.52561854  0.21161032    -0.18600
C1126       C  0.49439311  0.50387342  0.23148040     0.03800
C1127       C  0.49814811  0.48052655  0.21456883     0.17900
C1128       C  0.49938821  0.47953021  0.17920613    -0.20100
C1129       C  0.50069261  0.45830295  0.23306993    -0.21300
C1130       C  0.49974993  0.45875600  0.26798638    -0.19900
C1131       C  0.49666818  0.48149748  0.28533788     0.19300
C1132       C  0.49403459  0.50444311  0.26745733     0.01500
C1133       C  0.49157420  0.52692154  0.28644201    -0.14600
C1134       C  0.49186512  0.52655197  0.32164408    -0.12300
C1135       C  0.49438057  0.50383000  0.33911891     0.01000
C1136       C  0.49657425  0.48137651  0.32059641    -0.24500
H1137       H  0.48986448  0.54164136  0.16261055     0.09000
H1138       H  0.48771329  0.54392169  0.22229745     0.12600
H1139       H  0.50258328  0.46165482  0.16674280     0.11300
H1140       H  0.50342249  0.44042139  0.22044709     0.12500
H1141       H  0.50176669  0.44119148  0.28155131     0.11500
H1142       H  0.48973787  0.54514560  0.27487414     0.08600
H1143       H  0.49009596  0.54415712  0.33519890     0.11900
H1144       H  0.49868801  0.46359483  0.33363605     0.13700
C1145       C  0.82007206  0.33195277  0.68762575    -0.01800
C1146       C  0.84567935  0.32529625  0.68844912    -0.09800
C1147       C  0.86439701  0.34375635  0.69068180    -0.18600
C1148       C  0.85797640  0.36953882  0.69253483     0.03800
C1149       C  0.83197463  0.37594433  0.69488870     0.17900
C1150       C  0.81335281  0.35726577  0.69182105    -0.20100
C1151       C  0.82471728  0.40099642  0.69974905    -0.21300
C1152       C  0.84280085  0.41990720  0.70213451    -0.19900
C1153       C  0.86847210  0.41435247  0.69818035     0.19300
C1154       C  0.87638469  0.38917405  0.69241419     0.01500
C1155       C  0.90228593  0.38483645  0.68604180    -0.14600
C1156       C  0.91979595  0.40448452  0.68746314    -0.12300
C1157       C  0.91214260  0.42901823  0.69550983     0.01000
C1158       C  0.88631837  0.43385143  0.70014262    -0.24500
H1159       H  0.85135856  0.30581839  0.68572542     0.09000
H1160       H  0.88371177  0.33731773  0.69085964     0.12600
H1161       H  0.79355229  0.36251344  0.69200113     0.11300
H1162       H  0.80493414  0.40597089  0.70199163     0.12500
H1163       H  0.83662734  0.43908211  0.70645004     0.11500
H1164       H  0.90953900  0.36648000  0.67971436     0.08600
H1165       H  0.93956739  0.40019655  0.68345599     0.11900
H1166       H  0.88007148  0.45281051  0.70584630     0.13700
C1167       C  0.57935794  0.42595556  0.55547603    -0.01800
C1168       C  0.57264138  0.40048044  0.55461607    -0.09800
C1169       C  0.59098083  0.38181741  0.55814275    -0.18600
C1170       C  0.61668314  0.38816676  0.56312846     0.03800
C1171       C  0.62305041  0.41405560  0.56638317     0.17900
C1172       C  0.60452271  0.43262514  0.56194469    -0.20100
C1173       C  0.64789369  0.42125224  0.57379112    -0.21300
C1174       C  0.66659124  0.40321503  0.57827831    -0.19900
C1175       C  0.66108090  0.37762420  0.57419521     0.19300
C1176       C  0.63621648  0.36977592  0.56554952     0.01500
C1177       C  0.63206606  0.34389958  0.55935028    -0.14600
C1178       C  0.65141079  0.32639191  0.56375531    -0.12300
C1179       C  0.67546358  0.33402642  0.57458263     0.01000
C1180       C  0.68027262  0.35978490  0.57902722    -0.24500
H1181       H  0.55326039  0.39492510  0.54979588     0.09000
H1182       H  0.58445582  0.36261089  0.55701493     0.12600
H1183       H  0.60972750  0.45235714  0.56319600     0.11300
H1184       H  0.65282868  0.44095147  0.57656124     0.12500
H1185       H  0.68555491  0.40934062  0.58463959     0.11500
H1186       H  0.61409680  0.33662469  0.55097632     0.08600
H1187       H  0.64721221  0.30666858  0.55965350     0.11900
H1188       H  0.69893869  0.36599562  0.58672757     0.13700
C1189       C  0.75124123  0.24665282  0.78818799    -0.01800
C1190       C  0.72807224  0.24644096  0.80532509    -0.09800
C1191       C  0.72705202  0.24632317  0.84022050    -0.18600
C1192       C  0.74931447  0.24645371  0.85973558     0.03800
C1193       C  0.77289887  0.24666699  0.84254529     0.17900
C1194       C  0.77368903  0.24682107  0.80707759    -0.20100
C1195       C  0.79549260  0.24678998  0.86091610    -0.21300
C1196       C  0.79515425  0.24698958  0.89592105    -0.19900
C1197       C  0.77221714  0.24706917  0.91346820     0.19300
C1198       C  0.74894731  0.24660355  0.89566304     0.01500
C1199       C  0.72631908  0.24647652  0.91463240    -0.14600
C1200       C  0.72680187  0.24724751  0.94970604    -0.12300
C1201       C  0.74975917  0.24806113  0.96722470     0.01000
C1202       C  0.77242601  0.24778252  0.94879183    -0.24500
H1203       H  0.71031531  0.24643391  0.79172965     0.09000
H1204       H  0.70842908  0.24621877  0.85104656     0.12600
H1205       H  0.79175062  0.24705192  0.79426481     0.11300
H1206       H  0.81355856  0.24685687  0.84813191     0.12500
H1207       H  0.81298661  0.24722213  0.90937929     0.11500
H1208       H  0.70785978  0.24587139  0.90323089     0.08600
H1209       H  0.70901512  0.24723961  0.96313244     0.11900
H1210       H  0.79040147  0.24830061  0.96191006     0.13700
C1211       C  0.74868119  0.24664562  0.28842975    -0.01800
C1212       C  0.72624818  0.24030779  0.30520373    -0.09800
C1213       C  0.72480583  0.24085710  0.34016822    -0.18600
C1214       C  0.74586025  0.24792110  0.35989531     0.03800
C1215       C  0.76884044  0.25361805  0.34294362     0.17900
C1216       C  0.77007297  0.25287607  0.30758534    -0.20100
C1217       C  0.79037080  0.26032897  0.36137786    -0.21300
C1218       C  0.78955348  0.26167244  0.39627288    -0.19900
C1219       C  0.76713728  0.25650630  0.41361746     0.19300
C1220       C  0.74491713  0.24961105  0.39576124     0.01500
C1221       C  0.72271738  0.24491370  0.41462132    -0.14600
C1222       C  0.72273479  0.24663589  0.44970096    -0.12300
C1223       C  0.74481074  0.25298671  0.46721763     0.01000
C1224       C  0.76688886  0.25811444  0.44883222    -0.24500
H1225       H  0.70945986  0.23505857  0.29120953     0.09000
H1226       H  0.70685488  0.23577438  0.35091854     0.12600
H1227       H  0.78754874  0.25776510  0.29498774     0.11300
H1228       H  0.80796626  0.26463067  0.34871455     0.12500
H1229       H  0.80657641  0.26690821  0.40979854     0.11500
H1230       H  0.70500454  0.23982545  0.40307861     0.08600
H1231       H  0.70544700  0.24253817  0.46316658     0.11900
H1232       H  0.78412609  0.26325450  0.46195849     0.13700
C1233       C  0.91724373  0.42835599  0.18919261    -0.01800
C1234       C  0.92469520  0.40314797  0.18616098    -0.09800
C1235       C  0.90674937  0.38383055  0.18534643    -0.18600
C1236       C  0.88061098  0.38917120  0.18735019     0.03800
C1237       C  0.87315005  0.41486636  0.18807606     0.17900
C1238       C  0.89137635  0.43406149  0.18920451    -0.20100
C1239       C  0.84752136  0.42128564  0.18831355    -0.21300
C1240       C  0.82904241  0.40270388  0.18767706    -0.19900
C1241       C  0.83572625  0.37723372  0.18765122     0.19300
C1242       C  0.86158832  0.37003855  0.18832182     0.01500
C1243       C  0.86718368  0.34403406  0.19010396    -0.14600
C1244       C  0.84793934  0.32597463  0.18893350    -0.12300
C1245       C  0.82256651  0.33319121  0.18578272     0.01000
C1246       C  0.81662256  0.35890514  0.18618980    -0.24500
H1247       H  0.94454148  0.39817872  0.18600624     0.09000
H1248       H  0.91391164  0.36490679  0.18339376     0.12600
H1249       H  0.88536072  0.45351850  0.19110204     0.11300
H1250       H  0.84171371  0.44083936  0.18874348     0.12500
H1251       H  0.80935555  0.40830460  0.18733847     0.11500
H1252       H  0.88625109  0.33707073  0.19208127     0.08600
H1253       H  0.85308603  0.30624835  0.18885861     0.11900
H1254       H  0.79703232  0.36472251  0.18432468     0.13700
C1255       C  0.68027465  0.33515790  0.06792604    -0.01800
C1256       C  0.68770770  0.36040628  0.06613330    -0.09800
C1257       C  0.66990682  0.37945285  0.06194491    -0.18600
C1258       C  0.64379867  0.37389328  0.06011254     0.03800
C1259       C  0.63639495  0.34815819  0.06038622     0.17900
C1260       C  0.65462605  0.32909606  0.06386549    -0.20100
C1261       C  0.61078521  0.34164956  0.05839680    -0.21300
C1262       C  0.59227027  0.36018790  0.05713390    -0.19900
C1263       C  0.59890777  0.38569264  0.05769736     0.19300
C1264       C  0.62479163  0.39292636  0.05876939     0.01500
C1265       C  0.63050680  0.41892207  0.05879641    -0.14600
C1266       C  0.61140891  0.43688106  0.05710681    -0.12300
C1267       C  0.58596557  0.42969779  0.05569609     0.01000
C1268       C  0.57980685  0.40404744  0.05660828    -0.24500
H1269       H  0.70742681  0.36556079  0.06879511     0.09000
H1270       H  0.67722389  0.39835537  0.06115866     0.12600
H1271       H  0.64864984  0.30959789  0.06529405     0.11300
H1272       H  0.60500366  0.32207411  0.05837494     0.12500
H1273       H  0.57260217  0.35453002  0.05592963     0.11500
H1274       H  0.64953941  0.42607860  0.05958836     0.08600
H1275       H  0.61664741  0.45658887  0.05616240     0.11900
H1276       H  0.56017194  0.39831034  0.05483956     0.13700
C1277       C  0.82316879  0.66824438  0.83474894    -0.01800
C1278       C  0.81484764  0.64368599  0.82835010    -0.09800
C1279       C  0.83203701  0.62420480  0.82356767    -0.18600
C1280       C  0.85834668  0.62860643  0.82554200     0.03800
C1281       C  0.86672422  0.65370722  0.83131482     0.17900
C1282       C  0.84914663  0.67324387  0.83569972    -0.20100
C1283       C  0.89258211  0.65910584  0.83299550    -0.21300
C1284       C  0.91037216  0.64014107  0.82870467    -0.19900
C1285       C  0.90274489  0.61525506  0.82303899     0.19300
C1286       C  0.87661324  0.60905746  0.82178838     0.01500
C1287       C  0.86992804  0.58355885  0.81670476    -0.14600
C1288       C  0.88835438  0.56528252  0.81135299    -0.12300
C1289       C  0.91406129  0.57161158  0.81129987     0.01000
C1290       C  0.92113423  0.59657488  0.81797388    -0.24500
H1291       H  0.79482347  0.63944028  0.82735523     0.09000
H1292       H  0.82405726  0.60592400  0.81857452     0.12600
H1293       H  0.85569128  0.69219162  0.84101876     0.11300
H1294       H  0.89910366  0.67816744  0.83746064     0.12500
H1295       H  0.93025827  0.64498871  0.82976103     0.11500
H1296       H  0.85063444  0.57709927  0.81631286     0.08600
H1297       H  0.88236414  0.54609411  0.80661432     0.11900
H1298       H  0.94096905  0.60171910  0.81788922     0.13700
C1299       C  0.67808350  0.66728890  0.93999904    -0.01800
C1300       C  0.65266460  0.67400705  0.94369882    -0.09800
C1301       C  0.63376131  0.65564883  0.94355412    -0.18600
C1302       C  0.63976934  0.62985176  0.93982837     0.03800
C1303       C  0.66568713  0.62304775  0.93824734     0.17900
C1304       C  0.68445530  0.64169009  0.93804214    -0.20100
C1305       C  0.67272048  0.59768556  0.93658906    -0.21300
C1306       C  0.65449755  0.57882599  0.93732986    -0.19900
C1307       C  0.62878557  0.58492180  0.93844621     0.19300
C1308       C  0.62104021  0.61053294  0.93833460     0.01500
C1309       C  0.59487502  0.61567188  0.93663364    -0.14600
C1310       C  0.57713074  0.59625711  0.93792463    -0.12300
C1311       C  0.58482444  0.57117017  0.94125910     0.01000
C1312       C  0.61072758  0.56557688  0.94043176    -0.24500
H1313       H  0.64721980  0.69361582  0.94535456     0.09000
H1314       H  0.61462825  0.66221585  0.94646927     0.12600
H1315       H  0.70411109  0.63622625  0.93562841     0.11300
H1316       H  0.69247217  0.59238656  0.93534071     0.12500
H1317       H  0.66054987  0.55934763  0.93693083     0.11500
H1318       H  0.58754174  0.63452083  0.93452581     0.08600
H1319       H  0.55724964  0.60108003  0.93810229     0.11900
H1320       H  0.61686885  0.54615967  0.94227881     0.13700
C1321       C  0.75554978  0.74528011  0.54984623    -0.01800
C1322       C  0.77869508  0.74515230  0.56721392    -0.09800
C1323       C  0.77955152  0.74535034  0.60231110    -0.18600
C1324       C  0.75714283  0.74561687  0.62154774     0.03800
C1325       C  0.73369783  0.74533491  0.60392628     0.17900
C1326       C  0.73310580  0.74527900  0.56854962    -0.20100
C1327       C  0.71092146  0.74510678  0.62170361    -0.21300
C1328       C  0.71086954  0.74532885  0.65663389    -0.19900
C1329       C  0.73359250  0.74600570  0.67470978     0.19300
C1330       C  0.75709974  0.74615244  0.65754535     0.01500
C1331       C  0.77944478  0.74699992  0.67722240    -0.14600
C1332       C  0.77841607  0.74778109  0.71236817    -0.12300
C1333       C  0.75516847  0.74775776  0.72915105     0.01000
C1334       C  0.73284736  0.74671407  0.70996035    -0.24500
H1335       H  0.79641348  0.74498935  0.55363823     0.09000
H1336       H  0.79807461  0.74524179  0.61359885     0.12600
H1337       H  0.71505626  0.74526202  0.55559414     0.11300
H1338       H  0.69298767  0.74475880  0.60848893     0.12500
H1339       H  0.69288219  0.74514620  0.66961783     0.11500
H1340       H  0.79802803  0.74725946  0.66623712     0.08600
H1341       H  0.79595913  0.74852412  0.72641949     0.11900
H1342       H  0.71464984  0.74663618  0.72243561     0.13700
C1343       C  0.74661107  0.74777500  0.22889333    -0.01800
C1344       C  0.72328470  0.74858601  0.21197612    -0.09800
C1345       C  0.72205835  0.74803380  0.17695125    -0.18600
C1346       C  0.74426691  0.74673247  0.15742273     0.03800
C1347       C  0.76782362  0.74524064  0.17467954     0.17900
C1348       C  0.76878217  0.74576085  0.20995765    -0.20100
C1349       C  0.79038831  0.74351256  0.15664710    -0.21300
C1350       C  0.79017172  0.74369453  0.12177052    -0.19900
C1351       C  0.76738628  0.74564789  0.10405366     0.19300
C1352       C  0.74404069  0.74708386  0.12147716     0.01500
C1353       C  0.72163469  0.74913970  0.10209191    -0.14600
C1354       C  0.72249882  0.74983453  0.06694028    -0.12300
C1355       C  0.74563474  0.74851491  0.04995429     0.01000
C1356       C  0.76795618  0.74634023  0.06887281    -0.24500
H1357       H  0.70572913  0.74982435  0.22582927     0.09000
H1358       H  0.70344842  0.74878251  0.16596218     0.12600
H1359       H  0.78691194  0.74478819  0.22264691     0.11300
H1360       H  0.80837665  0.74221613  0.16961535     0.12500
H1361       H  0.80801673  0.74251537  0.10854026     0.11500
H1362       H  0.70316610  0.75041438  0.11329991     0.08600
H1363       H  0.70495173  0.75152640  0.05305601     0.11900
H1364       H  0.78605076  0.74525600  0.05622061     0.13700
C1365       C  0.82043802  0.66636569  0.32275756    -0.01800
C1366       C  0.81251904  0.64154959  0.31703706    -0.09800
C1367       C  0.83006669  0.62228202  0.31231214    -0.18600
C1368       C  0.85633279  0.62714735  0.31386569     0.03800
C1369       C  0.86425184  0.65249186  0.31874925     0.17900
C1370       C  0.84635034  0.67179712  0.32264402    -0.20100
C1371       C  0.88999994  0.65835143  0.32069551    -0.21300
C1372       C  0.90814566  0.63957312  0.31798738    -0.19900
C1373       C  0.90101595  0.61445522  0.31315246     0.19300
C1374       C  0.87500625  0.60782585  0.31106579     0.01500
C1375       C  0.86888157  0.58215212  0.30622288    -0.14600
C1376       C  0.88775816  0.56408413  0.30223083    -0.12300
C1377       C  0.91335304  0.57081850  0.30333691     0.01000
C1378       C  0.91982309  0.59598564  0.30965363    -0.24500
H1379       H  0.79257925  0.63688853  0.31695494     0.09000
H1380       H  0.82242634  0.60372453  0.30826468     0.12600
H1381       H  0.85266147  0.69089526  0.32745795     0.11300
H1382       H  0.89616073  0.67760472  0.32454491     0.12500
H1383       H  0.92792831  0.64475930  0.31957518     0.11500
H1384       H  0.84969944  0.57543730  0.30479491     0.08600
H1385       H  0.88223946  0.54474408  0.29758801     0.11900
H1386       H  0.93956739  0.60145796  0.31033009     0.13700
C1387       C  0.68136220  0.66298202  0.44182884    -0.01800
C1388       C  0.68805627  0.63746732  0.44106964    -0.09800
C1389       C  0.66965068  0.61865601  0.44227082    -0.18600
C1390       C  0.64366040  0.62474487  0.44369249     0.03800
C1391       C  0.63697535  0.65065137  0.44517911     0.17900
C1392       C  0.65577218  0.66940536  0.44471213    -0.20100
C1393       C  0.61152384  0.65772959  0.44624841    -0.21300
C1394       C  0.59249708  0.63964297  0.44606926    -0.19900
C1395       C  0.59840712  0.61398004  0.44493181     0.19300
C1396       C  0.62408030  0.60613166  0.44355520     0.01500
C1397       C  0.62898826  0.57998392  0.44235721    -0.14600
C1398       C  0.60935610  0.56245814  0.44401805    -0.12300
C1399       C  0.58411842  0.57022887  0.44637195     0.01000
C1400       C  0.57876921  0.59608776  0.44599269    -0.24500
H1401       H  0.70768839  0.63197309  0.43874875     0.09000
H1402       H  0.67640409  0.59955623  0.44133429     0.12600
H1403       H  0.65034564  0.68908028  0.44480492     0.11300
H1404       H  0.60627564  0.67743071  0.44714668     0.12500
H1405       H  0.57299030  0.64578544  0.44705492     0.11500
H1406       H  0.64781532  0.57240005  0.44083483     0.08600
H1407       H  0.61403587  0.54261303  0.44414633     0.11900
H1408       H  0.55934402  0.60235128  0.44815676     0.13700
C1409       C  0.67675707  0.82746468  0.44370909    -0.01800
C1410       C  0.65128607  0.82053746  0.44078764    -0.09800
C1411       C  0.63205614  0.83846155  0.44420137    -0.18600
C1412       C  0.63772470  0.86397308  0.45130149     0.03800
C1413       C  0.66353456  0.87050853  0.45638393     0.17900
C1414       C  0.68268429  0.85246707  0.45192688    -0.20100
C1415       C  0.67013023  0.89508710  0.46558688    -0.21300
C1416       C  0.65168188  0.91346175  0.46945673    -0.19900
C1417       C  0.62623840  0.90798706  0.46304394     0.19300
C1418       C  0.61884644  0.88324988  0.45351856     0.01500
C1419       C  0.59302535  0.87914216  0.44582301    -0.14600
C1420       C  0.57536479  0.89874194  0.44769403    -0.12300
C1421       C  0.58268891  0.92304432  0.45761837     0.01000
C1422       C  0.60823217  0.92733246  0.46553466    -0.24500
H1423       H  0.64622053  0.80132384  0.43456703     0.09000
H1424       H  0.61293409  0.83180458  0.44119787     0.12600
H1425       H  0.70233413  0.85792862  0.45473300     0.11300
H1426       H  0.68972281  0.90013992  0.46989712     0.12500
H1427       H  0.65744724  0.93227813  0.47675746     0.11500
H1428       H  0.58600349  0.86108916  0.43763647     0.08600
H1429       H  0.55583317  0.89476246  0.44144207     0.11900
H1430       H  0.61432300  0.94597861  0.47317314     0.13700
C1431       C  0.67276939  0.16974740  0.57620657    -0.01800
C1432       C  0.67949962  0.14426115  0.57657472    -0.09800
C1433       C  0.66144014  0.12552370  0.57240309    -0.18600
C1434       C  0.63570402  0.13156385  0.56772951     0.03800
C1435       C  0.62888113  0.15743598  0.56649209     0.17900
C1436       C  0.64739132  0.17625849  0.57072605    -0.20100
C1437       C  0.60364905  0.16428784  0.56108721    -0.21300
C1438       C  0.58511899  0.14598014  0.55632900    -0.19900
C1439       C  0.59130977  0.12036697  0.55728476     0.19300
C1440       C  0.61663772  0.11280937  0.56362240     0.01500
C1441       C  0.62186324  0.08675054  0.56523180    -0.14600
C1442       C  0.60315273  0.06902050  0.55858879    -0.12300
C1443       C  0.57851368  0.07650382  0.55075504     0.01000
C1444       C  0.57247257  0.10220514  0.55116133    -0.24500
H1445       H  0.69896755  0.13862417  0.58036583     0.09000
H1446       H  0.66838440  0.10649565  0.57284968     0.12600
H1447       H  0.64194126  0.19592249  0.57044596     0.11300
H1448       H  0.59825088  0.18394502  0.56016198     0.12500
H1449       H  0.56583638  0.15189971  0.55166134     0.11500
H1450       H  0.64026493  0.07934423  0.57114826     0.08600
H1451       H  0.60811284  0.04924299  0.55914629     0.11900
H1452       H  0.55336685  0.10812547  0.54526477     0.13700
C1453       C  0.49570824  0.00410812  0.82999581    -0.01800
C1454       C  0.48890365  0.02637185  0.81332063    -0.09800
C1455       C  0.48854941  0.02764732  0.77835440    -0.18600
C1456       C  0.49509097  0.00657160  0.75860263     0.03800
C1457       C  0.50160800  0.98388320  0.77556305     0.17900
C1458       C  0.50194479  0.98287220  0.81087701    -0.20100
C1459       C  0.50766347  0.96228300  0.75717997    -0.21300
C1460       C  0.50716987  0.96261965  0.72228605    -0.19900
C1461       C  0.50106576  0.98468952  0.70491302     0.19300
C1462       C  0.49523224  0.00711309  0.72268804     0.01500
C1463       C  0.49002823  0.02906116  0.70367237    -0.14600
C1464       C  0.49033265  0.02857608  0.66850241    -0.12300
C1465       C  0.49563785  0.00624425  0.65117411     0.01000
C1466       C  0.50097941  0.98441149  0.66972221    -0.24500
H1467       H  0.48365660  0.04303946  0.82737526     0.09000
H1468       H  0.48287600  0.04535979  0.76759749     0.12600
H1469       H  0.50722994  0.96556021  0.82345457     0.11300
H1470       H  0.51263364  0.94493922  0.76987717     0.12500
H1471       H  0.51175782  0.94550121  0.70876664     0.11500
H1472       H  0.48590126  0.04695192  0.71517832     0.08600
H1473       H  0.48628528  0.04574111  0.65486518     0.11900
H1474       H  0.50545179  0.96702038  0.65674755     0.13700
C1475       C  0.50428786  0.00004946  0.15105813    -0.01800
C1476       C  0.50169301  0.97696480  0.16791354    -0.09800
C1477       C  0.50309138  0.97552321  0.20286050    -0.18600
C1478       C  0.50716765  0.99725622  0.22257866     0.03800
C1479       C  0.50978925  0.02068171  0.20555070     0.17900
C1480       C  0.50841886  0.02187197  0.17018358    -0.20100
C1481       C  0.51352946  0.04283094  0.22396565    -0.21300
C1482       C  0.51426687  0.04231738  0.25891363    -0.19900
C1483       C  0.51152286  0.01960736  0.27638206     0.19300
C1484       C  0.50831726  0.99665982  0.25854728     0.01500
C1485       C  0.50618792  0.97421760  0.27757933    -0.14600
C1486       C  0.50628645  0.97472362  0.31278038    -0.12300
C1487       C  0.50854762  0.99751922  0.33027350     0.01000
C1488       C  0.51161493  0.01983084  0.31169724    -0.24500
H1489       H  0.49838743  0.95970617  0.15404829     0.09000
H1490       H  0.50066371  0.95710278  0.21365593     0.12600
H1491       H  0.51054966  0.03983072  0.15759064     0.11300
H1492       H  0.51560294  0.06074563  0.21126394     0.12500
H1493       H  0.51684685  0.05987544  0.27240651     0.11500
H1494       H  0.50422752  0.95596071  0.26605344     0.08600
H1495       H  0.50410315  0.95718629  0.32631722     0.11900
H1496       H  0.51373306  0.03764914  0.32473015     0.13700
C1497       C  0.57735619  0.92529648  0.94160728    -0.01800
C1498       C  0.56966462  0.90005469  0.94205149    -0.09800
C1499       C  0.58747715  0.88065663  0.94002840    -0.18600
C1500       C  0.61359979  0.88605476  0.93723380     0.03800
C1501       C  0.62100881  0.91177341  0.93563196     0.17900
C1502       C  0.60300494  0.93093349  0.93792900    -0.20100
C1503       C  0.64642464  0.91837816  0.93215210    -0.21300
C1504       C  0.66484104  0.89996179  0.93012858    -0.19900
C1505       C  0.65831191  0.87450937  0.93196796     0.19300
C1506       C  0.63268375  0.86704765  0.93590890     0.01500
C1507       C  0.62746820  0.84096711  0.93851677    -0.14600
C1508       C  0.64689161  0.82314703  0.93648125    -0.12300
C1509       C  0.67199370  0.83074724  0.93161794     0.01000
C1510       C  0.67746107  0.85649751  0.92971594    -0.24500
H1511       H  0.54989269  0.89527697  0.94508053     0.09000
H1512       H  0.58027117  0.86169038  0.94092097     0.12600
H1513       H  0.60905722  0.95044224  0.93724483     0.11300
H1514       H  0.65211317  0.93796073  0.93091955     0.12500
H1515       H  0.68438290  0.90568971  0.92724137     0.11500
H1516       H  0.60861222  0.83377991  0.94208014     0.08600
H1517       H  0.64215087  0.80334429  0.93799336     0.11900
H1518       H  0.69683048  0.86266957  0.92630204     0.13700
C1519       C  0.58178386  0.07702073  0.03975028    -0.01800
C1520       C  0.60737727  0.07158310  0.03432100    -0.09800
C1521       C  0.62600635  0.08968815  0.03957705    -0.18600
C1522       C  0.61980028  0.11416067  0.05070486     0.03800
C1523       C  0.59383610  0.11986954  0.05585138     0.17900
C1524       C  0.57515014  0.10129557  0.05065924    -0.20100
C1525       C  0.58673151  0.14410150  0.06601691    -0.21300
C1526       C  0.60487765  0.16268641  0.07158297    -0.19900
C1527       C  0.63063822  0.15743458  0.06760890     0.19300
C1528       C  0.63846385  0.13305090  0.05714812     0.01500
C1529       C  0.66470054  0.12843587  0.05439674    -0.14600
C1530       C  0.68235035  0.14696140  0.06252127    -0.12300
C1531       C  0.67463209  0.17090792  0.07287425     0.01000
C1532       C  0.64870662  0.17621830  0.07479870    -0.24500
H1533       H  0.61319146  0.05312586  0.02572247     0.09000
H1534       H  0.64508907  0.08388191  0.03439923     0.12600
H1535       H  0.55541822  0.10590782  0.05454283     0.11300
H1536       H  0.56699060  0.14870816  0.06976640     0.12500
H1537       H  0.59873427  0.18119916  0.07957842     0.11500
H1538       H  0.67231577  0.11053674  0.04680091     0.08600
H1539       H  0.70227768  0.14249589  0.06070279     0.11900
H1540       H  0.64261829  0.19467885  0.08313436     0.13700
C1541       C  0.17355795  0.66743142  0.82207593    -0.01800
C1542       C  0.14868902  0.67521231  0.81601727    -0.09800
C1543       C  0.12930794  0.65758214  0.81213413    -0.18600
C1544       C  0.13428644  0.63144940  0.81396186     0.03800
C1545       C  0.15964728  0.62372171  0.81959443     0.17900
C1546       C  0.17883221  0.64162110  0.82383068    -0.20100
C1547       C  0.16581781  0.59814998  0.82083853    -0.21300
C1548       C  0.14734038  0.57993367  0.81610660    -0.19900
C1549       C  0.12218470  0.58686063  0.81061453     0.19300
C1550       C  0.11515866  0.61269540  0.81002855     0.01500
C1551       C  0.08930983  0.61855773  0.80549753    -0.14600
C1552       C  0.07137443  0.59958686  0.80092767    -0.12300
C1553       C  0.07858987  0.57425917  0.80037503     0.01000
C1554       C  0.10400871  0.56802440  0.80545599    -0.24500
H1555       H  0.14406883  0.69504630  0.81480286     0.09000
H1556       H  0.11069528  0.66502625  0.80754756     0.12600
H1557       H  0.19803581  0.63535063  0.82836723     0.11300
H1558       H  0.18513861  0.59218832  0.82514228     0.12500
H1559       H  0.15276679  0.56027550  0.81677734     0.11500
H1560       H  0.08232204  0.63758748  0.80532136     0.08600
H1561       H  0.05182561  0.60482857  0.79687079     0.11900
H1562       H  0.10967719  0.54841072  0.80534622     0.13700
C1563       C  0.32616630  0.66671902  0.91825435    -0.01800
C1564       C  0.35079709  0.67456472  0.92601060    -0.09800
C1565       C  0.36991719  0.65705133  0.93231454    -0.18600
C1566       C  0.36503409  0.63087511  0.93113953     0.03800
C1567       C  0.33990661  0.62298973  0.92390422     0.17900
C1568       C  0.32087541  0.64081453  0.91755564    -0.20100
C1569       C  0.33394010  0.59733405  0.92260890    -0.21300
C1570       C  0.35243711  0.57925144  0.92809070    -0.19900
C1571       C  0.37739089  0.58634649  0.93495696     0.19300
C1572       C  0.38413138  0.61224609  0.93657972     0.01500
C1573       C  0.40971917  0.61827919  0.94331416    -0.14600
C1574       C  0.42774068  0.59940778  0.94817339    -0.12300
C1575       C  0.42086136  0.57396664  0.94704425     0.01000
C1576       C  0.39564088  0.56760306  0.94034457    -0.24500
H1577       H  0.35550623  0.69440334  0.92658455     0.09000
H1578       H  0.38836152  0.66463499  0.93777516     0.12600
H1579       H  0.30187668  0.63442885  0.91180891     0.11300
H1580       H  0.31482542  0.59118986  0.91715350     0.12500
H1581       H  0.34719343  0.55954474  0.92681879     0.11500
H1582       H  0.41642594  0.63738405  0.94506080     0.08600
H1583       H  0.44706020  0.60478758  0.95373498     0.11900
H1584       H  0.39017869  0.54793318  0.93932305     0.13700
C1585       C  0.32348839  0.83205223  0.92002856    -0.01800
C1586       C  0.34918179  0.82570591  0.92045718    -0.09800
C1587       C  0.36779161  0.84439247  0.92250967    -0.18600
C1588       C  0.36122348  0.87015413  0.92487941     0.03800
C1589       C  0.33512453  0.87635602  0.92612144     0.17900
C1590       C  0.31665745  0.85747383  0.92296565    -0.20100
C1591       C  0.32757886  0.90135960  0.93077482    -0.21300
C1592       C  0.34542692  0.92031049  0.93517027    -0.19900
C1593       C  0.37126699  0.91492753  0.93343854     0.19300
C1594       C  0.37953806  0.88993053  0.92697864     0.01500
C1595       C  0.40574207  0.88589828  0.92278843    -0.14600
C1596       C  0.42304434  0.90556792  0.92691678    -0.12300
C1597       C  0.41491489  0.92983268  0.93571384     0.01000
C1598       C  0.38890059  0.93440739  0.93838225    -0.24500
H1599       H  0.35497663  0.80624126  0.91803871     0.09000
H1600       H  0.38715162  0.83809919  0.92264824     0.12600
H1601       H  0.29682443  0.86260012  0.92288178     0.11300
H1602       H  0.30770924  0.90621386  0.93182910     0.12500
H1603       H  0.33896040  0.93936232  0.93969211     0.11500
H1604       H  0.41340222  0.86776052  0.91619388     0.08600
H1605       H  0.44299347  0.90148560  0.92431071     0.11900
H1606       H  0.38232311  0.95316810  0.94457347     0.13700
C1607       C  0.24593455  0.74754174  0.70635743    -0.01800
C1608       C  0.22317468  0.74446276  0.68875204    -0.09800
C1609       C  0.22275370  0.74446545  0.65354513    -0.18600
C1610       C  0.24521616  0.74775877  0.63466354     0.03800
C1611       C  0.26823772  0.75062492  0.65264049     0.17900
C1612       C  0.26838839  0.75043895  0.68790690    -0.20100
C1613       C  0.29104979  0.75388368  0.63538732    -0.21300
C1614       C  0.29152896  0.75460659  0.60047389    -0.19900
C1615       C  0.26920218  0.75212357  0.58190077     0.19300
C1616       C  0.24571804  0.74857371  0.59871472     0.01500
C1617       C  0.22374718  0.74626530  0.57880174    -0.14600
C1618       C  0.22499604  0.74764787  0.54388631    -0.12300
C1619       C  0.24813996  0.75120134  0.52729183     0.01000
C1620       C  0.27022808  0.75331891  0.54657049    -0.24500
H1621       H  0.20557285  0.74200446  0.70220539     0.09000
H1622       H  0.20452093  0.74195697  0.64191455     0.12600
H1623       H  0.28621680  0.75283931  0.70101298     0.11300
H1624       H  0.30867735  0.75603523  0.64902686     0.12500
H1625       H  0.30948971  0.75728481  0.58791997     0.11500
H1626       H  0.20524403  0.74346796  0.58938974     0.08600
H1627       H  0.20753732  0.74575754  0.52983206     0.11900
H1628       H  0.28823650  0.75605303  0.53413605     0.13700
C1629       C  0.24972018  0.74189202  0.20680897    -0.01800
C1630       C  0.22692839  0.74433349  0.18918034    -0.09800
C1631       C  0.22657597  0.74454398  0.15410060    -0.18600
C1632       C  0.24918918  0.74243679  0.13531966     0.03800
C1633       C  0.27212486  0.73887958  0.15325548     0.17900
C1634       C  0.27219273  0.73860620  0.18855331    -0.20100
C1635       C  0.29494519  0.73605838  0.13588495    -0.21300
C1636       C  0.29557558  0.73717051  0.10094202    -0.19900
C1637       C  0.27343395  0.74133957  0.08248140     0.19300
C1638       C  0.24991861  0.74399616  0.09947591     0.01500
C1639       C  0.22818511  0.74857842  0.07989279    -0.14600
C1640       C  0.22964662  0.75025173  0.04508039    -0.12300
C1641       C  0.25273987  0.74736515  0.02811152     0.01000
C1642       C  0.27465346  0.74297315  0.04711532    -0.24500
H1643       H  0.20924095  0.74655241  0.20251483     0.09000
H1644       H  0.20828020  0.74659158  0.14253195     0.12600
H1645       H  0.28996132  0.73625713  0.20180387     0.11300
H1646       H  0.31249037  0.73317096  0.14944607     0.12500
H1647       H  0.31356601  0.73504644  0.08829177     0.11500
H1648       H  0.20970676  0.75115714  0.09063134     0.08600
H1649       H  0.21229389  0.75379011  0.03139674     0.11900
H1650       H  0.29261709  0.74065466  0.03443981     0.13700
C1651       C  0.17473628  0.66753141  0.32126281    -0.01800
C1652       C  0.14991705  0.67534063  0.31487647    -0.09800
C1653       C  0.13040595  0.65779273  0.31181051    -0.18600
C1654       C  0.13523059  0.63171600  0.31456829     0.03800
C1655       C  0.16068335  0.62385978  0.31907475     0.17900
C1656       C  0.18000146  0.64170857  0.32294268    -0.20100
C1657       C  0.16673962  0.59823913  0.31954298    -0.21300
C1658       C  0.14804772  0.58018543  0.31503629    -0.19900
C1659       C  0.12275603  0.58731884  0.31136945     0.19300
C1660       C  0.11583526  0.61313596  0.31221461     0.01500
C1661       C  0.08981336  0.61916582  0.31087909    -0.14600
C1662       C  0.07159148  0.60037390  0.30674144    -0.12300
C1663       C  0.07875600  0.57512326  0.30356396     0.01000
C1664       C  0.10433630  0.56872432  0.30657048    -0.24500
H1665       H  0.14538468  0.69517205  0.31315878     0.09000
H1666       H  0.11180712  0.66518365  0.30687742     0.12600
H1667       H  0.19923833  0.63544024  0.32722999     0.11300
H1668       H  0.18612817  0.59213303  0.32278481     0.12500
H1669       H  0.15338246  0.56049564  0.31469999     0.11500
H1670       H  0.08297887  0.63819882  0.31308253     0.08600
H1671       H  0.05189460  0.60574215  0.30489855     0.11900
H1672       H  0.10999284  0.54914727  0.30489583     0.13700
C1673       C  0.32522623  0.67158953  0.42356697    -0.01800
C1674       C  0.35068530  0.67883456  0.42444050    -0.09800
C1675       C  0.36971816  0.66099476  0.42943018    -0.18600
C1676       C  0.36377482  0.63526134  0.43404750     0.03800
C1677       C  0.33782366  0.62832970  0.43497010     0.17900
C1678       C  0.31897253  0.64634620  0.42937929    -0.20100
C1679       C  0.33076673  0.60341156  0.44126927    -0.21300
C1680       C  0.34897625  0.58509772  0.44669227    -0.19900
C1681       C  0.37467290  0.59116175  0.44518339     0.19300
C1682       C  0.38253141  0.61619586  0.43819263     0.01500
C1683       C  0.40877697  0.62092236  0.43543045    -0.14600
C1684       C  0.42642950  0.60182020  0.44103989    -0.12300
C1685       C  0.41850840  0.57750976  0.44964538     0.01000
C1686       C  0.39256387  0.57226757  0.45097541    -0.24500
H1687       H  0.35599272  0.69827462  0.42026754     0.09000
H1688       H  0.38886838  0.66791719  0.42964227     0.12600
H1689       H  0.29928853  0.64062967  0.42938109     0.11300
H1690       H  0.31100495  0.59807679  0.44224853     0.12500
H1691       H  0.34290924  0.56600868  0.45191287     0.11500
H1692       H  0.41623355  0.63915863  0.42895280     0.08600
H1693       H  0.44636749  0.60628471  0.43942763     0.11900
H1694       H  0.38618190  0.55337434  0.45684500     0.13700
C1695       C  0.32466018  0.83368712  0.41521119    -0.01800
C1696       C  0.35004981  0.82631267  0.41657945    -0.09800
C1697       C  0.36933233  0.84422122  0.41901499    -0.18600
C1698       C  0.36375960  0.87023536  0.42057224     0.03800
C1699       C  0.33788698  0.87749157  0.42056703     0.17900
C1700       C  0.31873462  0.85931464  0.41747752    -0.20100
C1701       C  0.33124165  0.90287125  0.42349875    -0.21300
C1702       C  0.34974976  0.92128136  0.42673690    -0.19900
C1703       C  0.37538123  0.91482528  0.42643267     0.19300
C1704       C  0.38282769  0.88928643  0.42263119     0.01500
C1705       C  0.40901652  0.88401328  0.42113781    -0.14600
C1706       C  0.42697678  0.90311995  0.42513961    -0.12300
C1707       C  0.41950023  0.92805859  0.43081272     0.01000
C1708       C  0.39361478  0.93379208  0.43059481    -0.24500
H1709       H  0.35510419  0.80660940  0.41465130     0.09000
H1710       H  0.38838430  0.83710680  0.41970103     0.12600
H1711       H  0.29910518  0.86514367  0.41669866     0.11300
H1712       H  0.31156284  0.90850951  0.42363659     0.12500
H1713       H  0.34396221  0.94073595  0.42948887     0.11500
H1714       H  0.41622941  0.86528581  0.41721092     0.08600
H1715       H  0.44681811  0.89813375  0.42506448     0.11900
H1716       H  0.38755223  0.95306431  0.43450163     0.13700
C1717       C  0.16839969  0.33056160  0.66808947    -0.01800
C1718       C  0.14403485  0.32318894  0.67782410    -0.09800
C1719       C  0.12507364  0.34112247  0.68330373    -0.18600
C1720       C  0.12996511  0.36718248  0.67947622     0.03800
C1721       C  0.15486496  0.37453380  0.67047056     0.17900
C1722       C  0.17353968  0.35635989  0.66454514    -0.20100
C1723       C  0.16114021  0.40003520  0.66760691    -0.21300
C1724       C  0.14326854  0.41854110  0.67393860    -0.19900
C1725       C  0.11848024  0.41200741  0.68238048     0.19300
C1726       C  0.11126153  0.38624867  0.68460886     0.01500
C1727       C  0.08562668  0.38079686  0.69161799    -0.14600
C1728       C  0.06813146  0.40009569  0.69691939    -0.12300
C1729       C  0.07566064  0.42534799  0.69603521     0.01000
C1730       C  0.10085234  0.43116335  0.68864255    -0.24500
H1731       H  0.13948314  0.30344847  0.68088763     0.09000
H1732       H  0.10686274  0.33403254  0.69084759     0.12600
H1733       H  0.19231930  0.36247054  0.65734964     0.11300
H1734       H  0.18012896  0.40573030  0.66081736     0.12500
H1735       H  0.14884148  0.43812149  0.67197804     0.11500
H1736       H  0.07849730  0.36182302  0.69296665     0.08600
H1737       H  0.04874025  0.39521260  0.70270624     0.11900
H1738       H  0.10672111  0.45071751  0.68758763     0.13700
C1739       C  0.41459002  0.42807664  0.54937741    -0.01800
C1740       C  0.39170084  0.43503849  0.56413981    -0.09800
C1741       C  0.37262648  0.41729179  0.56911246    -0.18600
C1742       C  0.37573884  0.39197395  0.55870603     0.03800
C1743       C  0.39887198  0.38523856  0.54298850     0.17900
C1744       C  0.41817138  0.40315093  0.53905762    -0.20100
C1745       C  0.40249398  0.36075483  0.53091186    -0.21300
C1746       C  0.38374433  0.34260075  0.53453740    -0.19900
C1747       C  0.36102445  0.34837384  0.55073639     0.19300
C1748       C  0.35672620  0.37315803  0.56309995     0.01500
C1749       C  0.33370170  0.37795131  0.57970944    -0.14600
C1750       C  0.31581102  0.35901532  0.58396458    -0.12300
C1751       C  0.32002113  0.33449834  0.57193274     0.01000
C1752       C  0.34270634  0.32939234  0.55507790    -0.24500
H1753       H  0.38856575  0.45434718  0.57188395     0.09000
H1754       H  0.35555560  0.42413111  0.58061762     0.12600
H1755       H  0.43571700  0.39792176  0.52686086     0.11300
H1756       H  0.41996445  0.35560593  0.51851958     0.12500
H1757       H  0.38716731  0.32381506  0.52493744     0.11500
H1758       H  0.32903430  0.39603651  0.59024514     0.08600
H1759       H  0.29863310  0.36369440  0.59733659     0.11900
H1760       H  0.34635085  0.31054102  0.54583707     0.13700
C1761       C  0.31953637  0.16747557  0.56406672    -0.01800
C1762       C  0.31188931  0.14240663  0.55975987    -0.09800
C1763       C  0.32955964  0.12330317  0.55442356    -0.18600
C1764       C  0.35577164  0.12854385  0.55390749     0.03800
C1765       C  0.36347292  0.15402667  0.55814367     0.17900
C1766       C  0.34539432  0.17319678  0.56255286    -0.20100
C1767       C  0.38920698  0.16015388  0.55882735    -0.21300
C1768       C  0.40750910  0.14153868  0.55551967    -0.19900
C1769       C  0.40058291  0.11632430  0.55095235     0.19300
C1770       C  0.37460964  0.10944334  0.54982609     0.01500
C1771       C  0.36868158  0.08376516  0.54449912    -0.14600
C1772       C  0.38768096  0.06584682  0.53998094    -0.12300
C1773       C  0.41325411  0.07269836  0.54100947     0.01000
C1774       C  0.41953411  0.09799330  0.54697120    -0.24500
H1775       H  0.29204570  0.13745160  0.56095531     0.09000
H1776       H  0.32208886  0.10455164  0.55160414     0.12600
H1777       H  0.35155591  0.19245910  0.56642402     0.11300
H1778       H  0.39524544  0.17948680  0.56226779     0.12500
H1779       H  0.42725842  0.14694137  0.55634150     0.11500
H1780       H  0.34953424  0.07694376  0.54310233     0.08600
H1781       H  0.38226167  0.04647674  0.53536600     0.11900
H1782       H  0.43923611  0.10362394  0.54738234     0.13700
C1783       C  0.24335688  0.25162600  0.78210604    -0.01800
C1784       C  0.22059500  0.25260399  0.79993663    -0.09800
C1785       C  0.22057824  0.25305341  0.83514489    -0.18600
C1786       C  0.24348243  0.25242797  0.85375025     0.03800
C1787       C  0.26646553  0.25173932  0.83549878     0.17900
C1788       C  0.26619144  0.25132511  0.80028156    -0.20100
C1789       C  0.28969860  0.25138173  0.85242939    -0.21300
C1790       C  0.29066270  0.25147320  0.88734513    -0.19900
C1791       C  0.26841445  0.25188556  0.90623881     0.19300
C1792       C  0.24449689  0.25239011  0.88969801     0.01500
C1793       C  0.22264058  0.25267025  0.90988257    -0.14600
C1794       C  0.22441215  0.25254750  0.94481143    -0.12300
C1795       C  0.24796878  0.25209196  0.96121744     0.01000
C1796       C  0.26995272  0.25174058  0.94162016    -0.24500
H1797       H  0.20270004  0.25305767  0.78667657     0.09000
H1798       H  0.20231907  0.25388714  0.84699834     0.12600
H1799       H  0.28405473  0.25069017  0.78701577     0.11300
H1800       H  0.30729477  0.25095745  0.83854098     0.12500
H1801       H  0.30895417  0.25112593  0.89965256     0.11500
H1802       H  0.20382671  0.25290587  0.89950632     0.08600
H1803       H  0.20697696  0.25276018  0.95901851     0.11900
H1804       H  0.28828326  0.25132637  0.95384204     0.13700
C1805       C  0.25033714  0.25335039  0.28259846    -0.01800
C1806       C  0.27361347  0.25283959  0.29961832    -0.09800
C1807       C  0.27476566  0.25181778  0.33453557    -0.18600
C1808       C  0.25253733  0.25125562  0.35401313     0.03800
C1809       C  0.22891405  0.25222646  0.33682936     0.17900
C1810       C  0.22801020  0.25332514  0.30149282    -0.20100
C1811       C  0.20632891  0.25180852  0.35501363    -0.21300
C1812       C  0.20667429  0.25021534  0.38988514    -0.19900
C1813       C  0.22961607  0.24913227  0.40745237     0.19300
C1814       C  0.25291293  0.24969224  0.38986785     0.01500
C1815       C  0.27552070  0.24868261  0.40899687    -0.14600
C1816       C  0.27495336  0.24758573  0.44408927    -0.12300
C1817       C  0.25192502  0.24731339  0.46132280     0.01000
C1818       C  0.22933351  0.24777334  0.44264375    -0.24500
H1819       H  0.29127296  0.25290565  0.28590421     0.09000
H1820       H  0.29340571  0.25129334  0.34542035     0.12600
H1821       H  0.20988895  0.25385619  0.28873556     0.11300
H1822       H  0.18825877  0.25259523  0.34217211     0.12500
H1823       H  0.18884041  0.24986978  0.40323009     0.11500
H1824       H  0.29398890  0.24891641  0.39769623     0.08600
H1825       H  0.29267537  0.24716824  0.45775607     0.11900
H1826       H  0.21129287  0.24756471  0.45550902     0.13700
C1827       C  0.08266116  0.42760728  0.19804889    -0.01800
C1828       C  0.10791863  0.43508312  0.19469730    -0.09800
C1829       C  0.12697899  0.41738016  0.18968708    -0.18600
C1830       C  0.12143712  0.39134400  0.18844853     0.03800
C1831       C  0.09569354  0.38388400  0.19113237     0.17900
C1832       C  0.07660831  0.40199522  0.19548272    -0.20100
C1833       C  0.08919253  0.35835403  0.19014465    -0.21300
C1834       C  0.10771607  0.33998679  0.18668712    -0.19900
C1835       C  0.13322732  0.34666628  0.18406525     0.19300
C1836       C  0.14047550  0.37245828  0.18489822     0.01500
C1837       C  0.16647851  0.37819030  0.18217589    -0.14600
C1838       C  0.18435324  0.35922305  0.17782086    -0.12300
C1839       C  0.17712569  0.33385069  0.17629937     0.01000
C1840       C  0.15152055  0.32768498  0.18008374    -0.24500
H1841       H  0.11303870  0.45480327  0.19627823     0.09000
H1842       H  0.14587299  0.42471758  0.18740346     0.12600
H1843       H  0.05711394  0.39604338  0.19824008     0.11300
H1844       H  0.06962526  0.35252757  0.19223741     0.12500
H1845       H  0.10202971  0.32039050  0.18601932     0.11500
H1846       H  0.17366582  0.39715201  0.18289725     0.08600
H1847       H  0.20401939  0.36454674  0.17517577     0.11900
H1848       H  0.14567985  0.30814212  0.17870098     0.13700
C1849       C  0.42117153  0.42449490  0.05030188    -0.01800
C1850       C  0.39653250  0.43217788  0.05763311    -0.09800
C1851       C  0.37737003  0.41466223  0.06256957    -0.18600
C1852       C  0.38207161  0.38857384  0.05967539     0.03800
C1853       C  0.40729103  0.38070257  0.05321904     0.17900
C1854       C  0.42665197  0.39867470  0.04892992    -0.20100
C1855       C  0.41284604  0.35500410  0.05048074    -0.21300
C1856       C  0.39387694  0.33696623  0.05395028    -0.19900
C1857       C  0.36884017  0.34415648  0.06012516     0.19300
C1858       C  0.36259925  0.37010455  0.06286192     0.01500
C1859       C  0.33705459  0.37650365  0.06850837    -0.14600
C1860       C  0.31870462  0.35801571  0.07258341    -0.12300
C1861       C  0.32489975  0.33242254  0.07096362     0.01000
C1862       C  0.35000074  0.32559263  0.06401980    -0.24500
H1863       H  0.39195690  0.45201636  0.05930106     0.09000
H1864       H  0.35904058  0.42229481  0.06825582     0.12600
H1865       H  0.44572385  0.39260473  0.04320627     0.11300
H1866       H  0.43198817  0.34880761  0.04553687     0.12500
H1867       H  0.39882738  0.31724519  0.05176930     0.11500
H1868       H  0.33051437  0.39563648  0.07014286     0.08600
H1869       H  0.29945828  0.36391503  0.07741401     0.11900
H1870       H  0.35504785  0.30584764  0.06265624     0.13700
C1871       C  0.32138074  0.16792001  0.06544390    -0.01800
C1872       C  0.31416163  0.14262810  0.06284041    -0.09800
C1873       C  0.33218435  0.12365149  0.05962548    -0.18600
C1874       C  0.35831667  0.12929942  0.05939592     0.03800
C1875       C  0.36558541  0.15504359  0.06129562     0.17900
C1876       C  0.34715573  0.17404264  0.06400181    -0.20100
C1877       C  0.39121821  0.16162627  0.06104402    -0.21300
C1878       C  0.40983169  0.14320720  0.05862931    -0.19900
C1879       C  0.40332330  0.11768979  0.05662279     0.19300
C1880       C  0.37745354  0.11036231  0.05729022     0.01500
C1881       C  0.37186487  0.08437319  0.05564216    -0.14600
C1882       C  0.39098566  0.06657518  0.05191725    -0.12300
C1883       C  0.41641548  0.07382362  0.05014058     0.01000
C1884       C  0.42250391  0.09945016  0.05326521    -0.24500
H1885       H  0.29437871  0.13740386  0.06385484     0.09000
H1886       H  0.32498274  0.10473757  0.05779807     0.12600
H1887       H  0.35295819  0.19354297  0.06644491     0.11300
H1888       H  0.39692388  0.18119042  0.06263831     0.12500
H1889       H  0.42947751  0.14898116  0.05821458     0.11500
H1890       H  0.35287628  0.07711914  0.05665426     0.08600
H1891       H  0.38573152  0.04692132  0.04977927     0.11900
H1892       H  0.44209373  0.10532341  0.05163272     0.13700
C1893       C  0.91492011  0.07082796  0.69735909    -0.01800
C1894       C  0.88922424  0.06426111  0.69716677    -0.09800
C1895       C  0.87048106  0.08245690  0.69277968    -0.18600
C1896       C  0.87674701  0.10816881  0.68884870     0.03800
C1897       C  0.90280708  0.11472958  0.68822950     0.17900
C1898       C  0.92153125  0.09612865  0.69225590    -0.20100
C1899       C  0.91004273  0.13988689  0.68405507    -0.21300
C1900       C  0.89198223  0.15873339  0.68058616    -0.19900
C1901       C  0.86617665  0.15295697  0.68127851     0.19300
C1902       C  0.85815957  0.12758237  0.68554759     0.01500
C1903       C  0.83188170  0.12278567  0.68635685    -0.14600
C1904       C  0.81442704  0.14214090  0.68181919    -0.12300
C1905       C  0.82237685  0.16701395  0.67677188     0.01000
C1906       C  0.84832163  0.17238167  0.67722940    -0.24500
H1907       H  0.88347158  0.04487102  0.70068435     0.09000
H1908       H  0.85126146  0.07576212  0.69288194     0.12600
H1909       H  0.94129679  0.10151847  0.69237970     0.11300
H1910       H  0.92985589  0.14505042  0.68353107     0.12500
H1911       H  0.89826459  0.17799455  0.67731876     0.11500
H1912       H  0.82414820  0.10424863  0.69011523     0.08600
H1913       H  0.79447415  0.13753117  0.68196987     0.11900
H1914       H  0.85466439  0.19155703  0.67322441     0.13700
C1915       C  0.92000282  0.92428754  0.80482020    -0.01800
C1916       C  0.89582109  0.93203241  0.81434407    -0.09800
C1917       C  0.87735921  0.91451847  0.82261966    -0.18600
C1918       C  0.88240518  0.88843227  0.82118971     0.03800
C1919       C  0.90676766  0.88056642  0.81048437     0.17900
C1920       C  0.92550821  0.89851715  0.80314791    -0.20100
C1921       C  0.91201376  0.85490205  0.80650549    -0.21300
C1922       C  0.89347526  0.83688482  0.81276358    -0.19900
C1923       C  0.86951746  0.84406907  0.82418448     0.19300
C1924       C  0.86390070  0.86994527  0.82927878     0.01500
C1925       C  0.84005283  0.87627700  0.84261924    -0.14600
C1926       C  0.82216369  0.85784535  0.84935770    -0.12300
C1927       C  0.82723489  0.83238650  0.84311451     0.01000
C1928       C  0.85112432  0.82558088  0.83075889    -0.24500
H1929       H  0.89110599  0.95186298  0.81535625     0.09000
H1930       H  0.85914083  0.92207699  0.82912124     0.12600
H1931       H  0.94406365  0.89246132  0.79493554     0.11300
H1932       H  0.93044760  0.84874621  0.79800695     0.12500
H1933       H  0.89798434  0.81719406  0.80896421     0.11500
H1934       H  0.83469099  0.89528612  0.84870254     0.08600
H1935       H  0.80414271  0.86374415  0.85952966     0.11900
H1936       H  0.85550916  0.80591183  0.82646626     0.13700
C1937       C  0.08458633  0.92853091  0.80262230    -0.01800
C1938       C  0.11017531  0.93531628  0.80380541    -0.09800
C1939       C  0.12908381  0.91702011  0.80558021    -0.18600
C1940       C  0.12305190  0.89105536  0.80574297     0.03800
C1941       C  0.09705951  0.88424187  0.80512357     0.17900
C1942       C  0.07819144  0.90290164  0.80391915    -0.20100
C1943       C  0.09004196  0.85881885  0.80517240    -0.21300
C1944       C  0.10826094  0.83995506  0.80635275    -0.19900
C1945       C  0.13401572  0.84598747  0.80741001     0.19300
C1946       C  0.14180206  0.87163598  0.80669963     0.01500
C1947       C  0.16802812  0.87670454  0.80736649    -0.14600
C1948       C  0.18562194  0.85730732  0.81054350    -0.12300
C1949       C  0.17790215  0.83211870  0.81263906     0.01000
C1950       C  0.15203143  0.82653939  0.81008122    -0.24500
H1951       H  0.11566686  0.95495000  0.80277010     0.09000
H1952       H  0.14824502  0.92385352  0.80636029     0.12600
H1953       H  0.05848314  0.89737867  0.80251076     0.11300
H1954       H  0.07027675  0.85346912  0.80445790     0.12500
H1955       H  0.10213725  0.82048627  0.80673774     0.11500
H1956       H  0.17559999  0.89550081  0.80615006     0.08600
H1957       H  0.20548657  0.86214749  0.81207851     0.11900
H1958       H  0.14580286  0.80713406  0.81181216     0.13700
C1959       C  0.08011318  0.07106233  0.68760635    -0.01800
C1960       C  0.07225211  0.09587817  0.68194052    -0.09800
C1961       C  0.08990766  0.11522475  0.67793612    -0.18600
C1962       C  0.11615576  0.11028104  0.67915756     0.03800
C1963       C  0.12397413  0.08480656  0.68237512     0.17900
C1964       C  0.10604373  0.06561758  0.68701145    -0.20100
C1965       C  0.14967073  0.07866024  0.68146507    -0.21300
C1966       C  0.16785537  0.09732870  0.67768855    -0.19900
C1967       C  0.16085096  0.12268259  0.67593857     0.19300
C1968       C  0.13492839  0.12960838  0.67725039     0.01500
C1969       C  0.12901898  0.15557387  0.67732017    -0.14600
C1970       C  0.14801830  0.17379804  0.67502809    -0.12300
C1971       C  0.17346229  0.16681134  0.67220163     0.01000
C1972       C  0.17969480  0.14116963  0.67292597    -0.24500
H1973       H  0.05234301  0.10059386  0.68199603     0.09000
H1974       H  0.08244930  0.13386072  0.67402092     0.12600
H1975       H  0.11234525  0.04640937  0.69077440     0.11300
H1976       H  0.15575219  0.05925274  0.68355981     0.12500
H1977       H  0.18758629  0.09192548  0.67674894     0.11500
H1978       H  0.10990894  0.16238594  0.67940129     0.08600
H1979       H  0.14265200  0.19346127  0.67443477     0.11900
H1980       H  0.19933542  0.13554107  0.67105537     0.13700
C1981       C  0.99642691  0.99604153  0.58713504    -0.01800
C1982       C  0.98993117  0.97385942  0.56997699    -0.09800
C1983       C  0.99029883  0.97275243  0.53494196    -0.18600
C1984       C  0.99746456  0.99387613  0.51565417     0.03800
C1985       C  0.00389016  0.01641223  0.53313469     0.17900
C1986       C  0.00304036  0.01737625  0.56845004    -0.20100
C1987       C  0.01149893  0.03777380  0.51530676    -0.21300
C1988       C  0.01297239  0.03725973  0.48045638    -0.19900
C1989       C  0.00662074  0.01545023  0.46253903     0.19300
C1990       C  0.99867826  0.99342895  0.47974604     0.01500
C1991       C  0.99229594  0.97200794  0.46019468    -0.14600
C1992       C  0.99363095  0.97255790  0.42509201    -0.12300
C1993       C  0.00126717  0.99440929  0.40833822     0.01000
C1994       C  0.00795666  0.01568995  0.42736902    -0.24500
H1995       H  0.98455940  0.95711264  0.58373404     0.09000
H1996       H  0.98516038  0.95498102  0.52378470     0.12600
H1997       H  0.00822935  0.03459407  0.58142733     0.11300
H1998       H  0.01649391  0.05497591  0.52842622     0.12500
H1999       H  0.01901982  0.05410894  0.46739917     0.11500
H2000       H  0.98595836  0.95461125  0.47120143     0.08600
H2001       H  0.98821120  0.95592939  0.41101546     0.11900
H2002       H  0.01409532  0.03271191  0.41476391     0.13700
C2003       C  0.99877750  0.00192819  0.90853197    -0.01800
C2004       C  0.99498819  0.02505264  0.92499172    -0.09800
C2005       C  0.99575253  0.02690503  0.95996067    -0.18600
C2006       C  0.00040851  0.00556957  0.98009393     0.03800
C2007       C  0.00409158  0.98208204  0.96346277     0.17900
C2008       C  0.00318450  0.98044881  0.92810805    -0.20100
C2009       C  0.00881986  0.96035045  0.98221867    -0.21300
C2010       C  0.01004550  0.96139757  0.01708554    -0.19900
C2011       C  0.00645908  0.98417738  0.03415119     0.19300
C2012       C  0.00156427  0.00665129  0.01605780     0.01500
C2013       C  0.99798964  0.02908676  0.03485280    -0.14600
C2014       C  0.99889667  0.02901047  0.07009235    -0.12300
C2015       C  0.00341749  0.00665953  0.08776731     0.01000
C2016       C  0.00748925  0.98442336  0.06936926    -0.24500
H2017       H  0.99148048  0.04206952  0.91078132     0.09000
H2018       H  0.99273464  0.04536437  0.97043330     0.12600
H2019       H  0.00617967  0.96245380  0.91586459     0.11300
H2020       H  0.01164233  0.94239246  0.96983049     0.12500
H2021       H  0.01374225  0.94419167  0.03084306     0.11500
H2022       H  0.99422182  0.04695420  0.02310980     0.08600
H2023       H  0.99566118  0.04646182  0.08351230     0.11900
H2024       H  0.01118557  0.96693966  0.08250054     0.13700
C2025       C  0.82322526  0.16895597  0.17872713    -0.01800
C2026       C  0.81599558  0.14375939  0.18241978    -0.09800
C2027       C  0.83394478  0.12499530  0.18759809    -0.18600
C2028       C  0.86003453  0.13074313  0.18871191     0.03800
C2029       C  0.86733676  0.15636530  0.18505286     0.17900
C2030       C  0.84894109  0.17521797  0.18064840    -0.20100
C2031       C  0.89297309  0.16292075  0.18509552    -0.21300
C2032       C  0.91156440  0.14455252  0.18838787    -0.19900
C2033       C  0.90501282  0.11918179  0.19230031     0.19300
C2034       C  0.87911394  0.11196362  0.19288164     0.01500
C2035       C  0.87343069  0.08624840  0.19778358    -0.14600
C2036       C  0.89255072  0.06855860  0.20218674    -0.12300
C2037       C  0.91809124  0.07561197  0.20159447     0.01000
C2038       C  0.92419819  0.10100041  0.19617847    -0.24500
H2039       H  0.79624059  0.13844497  0.18108949     0.09000
H2040       H  0.82673040  0.10612706  0.18993670     0.12600
H2041       H  0.85471845  0.19465121  0.17741042     0.11300
H2042       H  0.89870765  0.18238497  0.18220883     0.12500
H2043       H  0.93122865  0.15026380  0.18807788     0.11500
H2044       H  0.85438588  0.07915141  0.19890219     0.08600
H2045       H  0.88719581  0.04911920  0.20629378     0.11900
H2046       H  0.94385981  0.10675845  0.19604117     0.13700
C2047       C  0.82593901  0.83102499  0.33613911    -0.01800
C2048       C  0.81874909  0.85632978  0.33366729    -0.09800
C2049       C  0.83629354  0.87503843  0.32570293    -0.18600
C2050       C  0.86204395  0.86921038  0.32033732     0.03800
C2051       C  0.86950373  0.84360392  0.32345877     0.17900
C2052       C  0.85142749  0.82476277  0.33068778    -0.20100
C2053       C  0.89501568  0.83707607  0.31985362    -0.21300
C2054       C  0.91327926  0.85542473  0.31355664    -0.19900
C2055       C  0.90649432  0.88075995  0.30986347     0.19300
C2056       C  0.88068054  0.88792138  0.31255132     0.01500
C2057       C  0.87461197  0.91349223  0.30704167    -0.14600
C2058       C  0.89332539  0.93120193  0.29977158    -0.12300
C2059       C  0.91888005  0.92433988  0.29798850     0.01000
C2060       C  0.92531776  0.89896770  0.30317490    -0.24500
H2061       H  0.79927839  0.86176699  0.33782422     0.09000
H2062       H  0.82913247  0.89398420  0.32459984     0.12600
H2063       H  0.85734428  0.80531256  0.33302943     0.11300
H2064       H  0.90095067  0.81765276  0.32234028     0.12500
H2065       H  0.93285799  0.84971318  0.31130816     0.11500
H2066       H  0.85549307  0.92040494  0.30765206     0.08600
H2067       H  0.88765564  0.95053916  0.29564611     0.11900
H2068       H  0.94492923  0.89326415  0.30128982     0.13700
C2069       C  0.17876644  0.83105710  0.30556664    -0.01800
C2070       C  0.15323168  0.82416918  0.30712668    -0.09800
C2071       C  0.13423225  0.84242178  0.30669760    -0.18600
C2072       C  0.14019320  0.86831599  0.30428482     0.03800
C2073       C  0.16604085  0.87506503  0.30045395     0.17900
C2074       C  0.18498068  0.85654896  0.30153508    -0.20100
C2075       C  0.17286865  0.90029977  0.29605969    -0.21300
C2076       C  0.15453246  0.91900683  0.29502153    -0.19900
C2077       C  0.12896766  0.91304615  0.29931701     0.19300
C2078       C  0.12146831  0.88771838  0.30498904     0.01500
C2079       C  0.09557490  0.88299438  0.31117639    -0.14600
C2080       C  0.07769581  0.90231402  0.30925401    -0.12300
C2081       C  0.08495066  0.92696584  0.30111613     0.01000
C2082       C  0.11079319  0.93225418  0.29724954    -0.24500
H2083       H  0.14790864  0.80463643  0.31042659     0.09000
H2084       H  0.11505919  0.83569315  0.30841406     0.12600
H2085       H  0.20468804  0.86206229  0.30005948     0.11300
H2086       H  0.19251924  0.90558212  0.29300775     0.12500
H2087       H  0.16040655  0.93830624  0.29092103     0.11500
H2088       H  0.08853787  0.86452114  0.31730326     0.08600
H2089       H  0.05796173  0.89765414  0.31289211     0.11900
H2090       H  0.11679936  0.95130575  0.29164684     0.13700
C2091       C  0.17930080  0.16773888  0.18019823    -0.01800
C2092       C  0.18671209  0.14253442  0.18284088    -0.09800
C2093       C  0.16883879  0.12344456  0.18640625    -0.18600
C2094       C  0.14268586  0.12889926  0.18693796     0.03800
C2095       C  0.13523818  0.15456365  0.18489521     0.17900
C2096       C  0.15351998  0.17367965  0.18197820    -0.20100
C2097       C  0.10957270  0.16093857  0.18493519    -0.21300
C2098       C  0.09108126  0.14235373  0.18687781    -0.19900
C2099       C  0.09777389  0.11690931  0.18888393     0.19300
C2100       C  0.12369016  0.10982007  0.18903431     0.01500
C2101       C  0.12946078  0.08391337  0.19129276    -0.14600
C2102       C  0.11040224  0.06592153  0.19399342    -0.12300
C2103       C  0.08488029  0.07292071  0.19436889     0.01000
C2104       C  0.07869490  0.09850022  0.19128627    -0.24500
H2105       H  0.20650948  0.13745543  0.18147734     0.09000
H2106       H  0.17616764  0.10458975  0.18796839     0.12600
H2107       H  0.14757519  0.19311144  0.17943561     0.11300
H2108       H  0.10374453  0.18044609  0.18325141     0.12500
H2109       H  0.07138760  0.14793346  0.18683757     0.11500
H2110       H  0.14852450  0.07686402  0.19154476     0.08600
H2111       H  0.11577705  0.04633959  0.19642640     0.11900
H2112       H  0.05903913  0.10421310  0.19204924     0.13700
loop_ 
_geom_bond_atom_site_label_1 
_geom_bond_atom_site_label_2 
_geom_bond_distance 
_geom_bond_site_symmetry_2 
_ccdc_geom_bond_type 
Zr1           O2   2.442   1_455  S
Zr1           O3   2.455       .  S
Zr1           O4   2.459       .  S
Zr1           O7   2.459   1_455  S
Zr1           O9   2.388       .  S
Zr1          O10   2.391   1_455  S
Zr1          O11   2.414       .  S
Zr1          O12   2.402   1_455  S
O2           H58   0.990   1_655  S
O2           H66   0.991   1_655  S
O3           C23   1.287       .  A
O4           C25   1.288       .  A
O5          Zr15   2.414       .  S
O5           C24   1.283       .  A
O6          Zr14   2.418       .  S
O6           C25   1.283       .  A
O7           C24   1.289       .  A
O8          Zr16   2.406       .  S
O8           C23   1.280   1_565  A
O9          Zr14   2.396       .  S
O9          Zr16   2.381   1_545  S
O10         Zr15   2.393       .  S
O10         Zr16   2.375   1_645  S
O10          H45   0.967       .  S
O11         Zr14   2.400       .  S
O11         Zr31   2.383       .  S
O11          H48   0.965       .  S
O12         Zr15   2.391       .  S
O12         Zr31   2.385   1_655  S
Zr13         O38   2.441       .  S
Zr13         O32   2.450       .  S
Zr13         O40   2.464   1_455  S
Zr13         O28   2.451       .  S
Zr13         O19   2.405   1_455  S
Zr13         O20   2.413       .  S
Zr13         O21   2.383       .  S
Zr13         O22   2.387   1_455  S
Zr14         O33   2.437       .  S
Zr14         O26   2.437   1_545  S
Zr14         O27   2.430   1_545  S
Zr14         O20   2.395   1_545  S
Zr14         O21   2.389   1_545  S
Zr15         O17   2.436       .  S
Zr15         O39   2.436   1_545  S
Zr15         O41   2.423   1_545  S
Zr15         O19   2.389   1_545  S
Zr15         O22   2.393   1_545  S
Zr16         O42   2.436   1_455  S
Zr16         O43   2.435   1_455  S
Zr16         O18   2.436       .  S
Zr16         O19   2.391   1_455  S
Zr16         O20   2.383       .  S
O17          H54   0.990       .  S
O18          H49   0.990       .  S
O18          H63   0.990       .  S
O20          H46   0.965       .  S
O21         Zr31   2.380   1_565  S
O22         Zr31   2.381   1_665  S
O22          H47   0.966       .  S
C23        C2015   1.489       .  S
C24        C2037   1.486       .  S
C25        C2103   1.483       .  S
O26          H62   0.990       .  S
O27          C29   1.285       .  A
O28          C29   1.288       .  A
C29        C2081   1.488       .  S
O30         Zr31   2.438       .  S
O30          H59   0.990       .  S
Zr31         O34   2.438       .  S
Zr31         O35   2.437   1_455  S
Zr31         O36   2.395       .  S
O32          C37   1.286       .  A
O33          H50   0.990       .  S
O33          H65   0.990       .  S
O34          H51   0.990       .  S
O35          H55   0.990       .  S
O35          H64   0.990       .  S
O36          C37   1.278   1_545  A
C37        C1993   1.481       .  S
O38          H57   0.990   1_455  S
O38          H61   0.990   1_455  S
O39          H53   0.990       .  S
O39          H60   0.990       .  S
O40          C44   1.289       .  A
O41          C44   1.284       .  A
O42          H52   0.990       .  S
O43          H56   0.990       .  S
C44        C2059   1.492       .  S
Zr67         O68   2.443       .  S
Zr67         O69   2.451       .  S
Zr67         O70   2.455   1_655  S
Zr67         O73   2.462       .  S
Zr67         O75   2.386   1_645  S
Zr67         O76   2.387   1_545  S
Zr67         O77   2.420   1_655  S
Zr67         O78   2.400       .  S
O68         H124   0.991   1_655  S
O68         H132   0.990   1_655  S
O69          C89   1.286   1_545  A
O70          C91   1.288       .  A
O71         Zr81   2.421   1_545  S
O71          C90   1.284       .  A
O72         Zr80   2.422       .  S
O72          C91   1.283       .  A
O73          C90   1.290       .  A
O74         Zr82   2.406       .  S
O74          C89   1.279       .  A
O75         Zr80   2.402   1_565  S
O75         Zr82   2.382   1_455  S
O76         Zr81   2.390       .  S
O76         Zr82   2.378       .  S
O76         H111   0.968       .  S
O77         Zr80   2.400       .  S
O77         Zr97   2.389   1_455  S
O77         H114   0.965       .  S
O78         Zr81   2.386   1_545  S
O78         Zr97   2.386       .  S
Zr79        O104   2.441   1_455  S
Zr79         O98   2.462       .  S
Zr79        O106   2.441   1_455  S
Zr79         O94   2.461       .  S
Zr79         O85   2.407   1_455  S
Zr79         O86   2.415       .  S
Zr79         O87   2.382   1_565  S
Zr79         O88   2.390   1_455  S
Zr80         O99   2.437       .  S
Zr80         O92   2.434   1_545  S
Zr80         O93   2.430   1_545  S
Zr80         O86   2.399   1_545  S
Zr80         O87   2.390       .  S
Zr81         O83   2.435   1_565  S
Zr81        O105   2.436       .  S
Zr81        O107   2.409       .  S
Zr81         O85   2.389       .  S
Zr81         O88   2.393       .  S
Zr82        O108   2.435       .  S
Zr82        O109   2.436   1_655  S
Zr82         O84   2.438   1_655  S
Zr82         O85   2.389       .  S
Zr82         O86   2.385   1_655  S
O83         H120   0.990       .  S
O84         H115   0.990       .  S
O84         H129   0.990       .  S
O86         H112   0.965       .  S
O87         Zr97   2.385   1_455  S
O88         Zr97   2.378   1_565  S
O88         H113   0.967       .  S
C89        C1981   1.483       .  S
C90        C1893   1.489       .  S
C91        C1959   1.482       .  S
O92         H128   0.990       .  S
O93          C95   1.284       .  A
O94          C95   1.289       .  A
C95        C1937   1.485       .  S
O96         Zr97   2.439   1_455  S
O96         H125   0.990   1_455  S
Zr97        O100   2.436   1_655  S
Zr97        O101   2.439       .  S
Zr97        O102   2.399       .  S
O98         C103   1.289   1_465  A
O99         H116   0.990       .  S
O99         H131   0.990       .  S
O100        H117   0.989       .  S
O101        H121   0.990       .  S
O101        H130   0.990       .  S
O102        C103   1.278       .  A
C103       C2003   1.490       .  S
O104        H123   0.991   1_655  S
O104        H127   0.990   1_655  S
O105        H119   0.990       .  S
O105        H126   0.990       .  S
O106        C110   1.285       .  A
O107        C110   1.281       .  A
O108        H118   0.990       .  S
O109        H122   0.990       .  S
C110       C1915   1.471       .  S
Zr133       O134   2.441       .  S
Zr133       O135   2.462       .  S
Zr133       O136   2.458       .  S
Zr133       O139   2.451       .  S
Zr133       O141   2.385       .  S
Zr133       O142   2.389       .  S
Zr133       O143   2.418       .  S
Zr133       O144   2.402       .  S
O134        H190   0.990       .  S
O134        H198   0.991       .  S
O135        C155   1.288   1_554  A
O136        C157   1.288       .  A
O137       Zr147   2.414       .  S
O137        C156   1.283       .  A
O138       Zr146   2.419       .  S
O138        C157   1.282       .  A
O139        C156   1.287       .  A
O140       Zr148   2.395       .  S
O140        C155   1.277   1_554  A
O141       Zr146   2.395       .  S
O141       Zr148   2.383       .  S
O142       Zr147   2.390       .  S
O142       Zr148   2.379       .  S
O142        H177   0.966       .  S
O143       Zr146   2.398       .  S
O143       Zr163   2.387       .  S
O143        H180   0.965       .  S
O144       Zr147   2.385       .  S
O144       Zr163   2.385       .  S
Zr145       O170   2.443       .  S
Zr145       O164   2.454       .  S
Zr145       O172   2.453       .  S
Zr145       O160   2.455       .  S
Zr145       O151   2.402       .  S
Zr145       O152   2.415       .  S
Zr145       O153   2.383       .  S
Zr145       O154   2.384       .  S
Zr146       O165   2.436       .  S
Zr146       O158   2.436       .  S
Zr146       O159   2.416       .  S
Zr146       O152   2.399       .  S
Zr146       O153   2.393       .  S
Zr147       O149   2.436       .  S
Zr147       O171   2.436       .  S
Zr147       O173   2.412       .  S
Zr147       O151   2.387       .  S
Zr147       O154   2.388       .  S
Zr148       O174   2.435       .  S
Zr148       O175   2.435       .  S
Zr148       O150   2.437       .  S
Zr148       O151   2.386       .  S
Zr148       O152   2.381       .  S
O149        H186   0.990       .  S
O150        H181   0.990       .  S
O150        H195   0.990       .  S
O152        H178   0.965       .  S
O153       Zr163   2.379       .  S
O154       Zr163   2.376       .  S
O154        H179   0.966       .  S
C155       C1795   1.488       .  S
C156       C1861   1.484       .  S
C157       C1871   1.481       .  S
O158        H194   0.990       .  S
O159        C161   1.282       .  A
O160        C161   1.287       .  A
C161       C2091   1.479       .  S
O162       Zr163   2.437       .  S
O162        H191   0.990       .  S
Zr163       O166   2.438       .  S
Zr163       O167   2.438       .  S
Zr163       O168   2.396       .  S
O164        C169   1.287       .  A
O165        H182   0.990       .  S
O165        H197   0.990       .  S
O166        H183   0.990       .  S
O167        H187   0.990       .  S
O167        H196   0.990       .  S
O168        C169   1.278       .  A
C169       C1805   1.484       .  S
O170        H189   0.991       .  S
O170        H193   0.990       .  S
O171        H185   0.990       .  S
O171        H192   0.990       .  S
O172        C176   1.288       .  A
O173        C176   1.282       .  A
O174        H184   0.990       .  S
O175        H188   0.990       .  S
C176       C1839   1.482       .  S
Zr199       O200   2.442       .  S
Zr199       O201   2.449       .  S
Zr199       O202   2.463       .  S
Zr199       O205   2.460       .  S
Zr199       O207   2.388       .  S
Zr199       O208   2.393       .  S
Zr199       O209   2.410       .  S
Zr199       O210   2.400       .  S
O200        H256   0.990       .  S
O200        H264   0.991       .  S
O201        C221   1.288       .  A
O202        C223   1.289       .  A
O203       Zr213   2.403       .  S
O203        C222   1.281       .  A
O204       Zr212   2.424       .  S
O204        C223   1.283       .  A
O205        C222   1.290       .  A
O206       Zr214   2.402       .  S
O206        C221   1.279       .  A
O207       Zr212   2.395       .  S
O207       Zr214   2.381       .  S
O208       Zr213   2.390       .  S
O208       Zr214   2.376       .  S
O208        H243   0.966       .  S
O209       Zr212   2.399       .  S
O209       Zr229   2.384       .  S
O209        H246   0.965       .  S
O210       Zr213   2.388       .  S
O210       Zr229   2.382       .  S
Zr211       O236   2.442       .  S
Zr211       O230   2.461       .  S
Zr211       O238   2.457       .  S
Zr211       O226   2.456       .  S
Zr211       O217   2.407       .  S
Zr211       O218   2.420       .  S
Zr211       O219   2.386       .  S
Zr211       O220   2.386       .  S
Zr212       O231   2.436       .  S
Zr212       O224   2.434       .  S
Zr212       O225   2.425       .  S
Zr212       O218   2.399       .  S
Zr212       O219   2.396       .  S
Zr213       O215   2.435       .  S
Zr213       O237   2.439       .  S
Zr213       O239   2.419       .  S
Zr213       O217   2.381       .  S
Zr213       O220   2.390       .  S
Zr214       O240   2.434       .  S
Zr214       O241   2.435       .  S
Zr214       O216   2.436       .  S
Zr214       O217   2.387       .  S
Zr214       O218   2.379       .  S
O215        H252   0.990       .  S
O216        H247   0.990       .  S
O216        H261   0.990       .  S
O218        H244   0.964       .  S
O219       Zr229   2.382       .  S
O220       Zr229   2.383       .  S
O220        H245   0.965       .  S
C221       C1817   1.484       .  S
C222       C1751   1.487       .  S
C223       C1761   1.485       .  S
O224        H260   0.990       .  S
O225        C227   1.284       .  A
O226        C227   1.288       .  A
C227       C1971   1.482       .  S
O228       Zr229   2.438       .  S
O228        H257   0.990       .  S
Zr229       O232   2.437       .  S
Zr229       O233   2.440       .  S
Zr229       O234   2.391       .  S
O230        C235   1.288       .  A
O231        H248   0.990       .  S
O231        H263   0.990       .  S
O232        H249   0.990       .  S
O233        H253   0.990       .  S
O233        H262   0.990       .  S
O234        C235   1.277       .  A
C235       C1783   1.487       .  S
O236        H255   0.990       .  S
O236        H259   0.990       .  S
O237        H251   0.990       .  S
O237        H258   0.990       .  S
O238        C242   1.288       .  A
O239        C242   1.283       .  A
O240        H250   0.990       .  S
O241        H254   0.990       .  S
C242       C1717   1.489       .  S
Zr265       O266   2.443       .  S
Zr265       O267   2.440       .  S
Zr265       O268   2.460       .  S
Zr265       O271   2.440       .  S
Zr265       O273   2.382       .  S
Zr265       O274   2.389       .  S
Zr265       O275   2.408       .  S
Zr265       O276   2.404       .  S
O266        H322   0.990       .  S
O266        H330   0.990       .  S
O267        C287   1.285       .  A
O268        C289   1.289       .  A
O269       Zr279   2.416       .  S
O269        C288   1.282       .  A
O270       Zr278   2.421       .  S
O270        C289   1.282       .  A
O271        C288   1.286       .  A
O272       Zr280   2.407       .  S
O272        C287   1.279       .  A
O273       Zr278   2.400       .  S
O273       Zr280   2.384       .  S
O274       Zr279   2.392       .  S
O274       Zr280   2.372       .  S
O274        H309   0.966       .  S
O275       Zr278   2.398       .  S
O275       Zr295   2.377       .  S
O275        H312   0.964       .  S
O276       Zr279   2.392       .  S
O276       Zr295   2.385       .  S
Zr277       O302   2.443       .  S
Zr277       O296   2.462       .  S
Zr277       O304   2.447       .  S
Zr277       O292   2.447       .  S
Zr277       O283   2.407       .  S
Zr277       O284   2.417       .  S
Zr277       O285   2.380       .  S
Zr277       O286   2.386       .  S
Zr278       O297   2.435       .  S
Zr278       O290   2.434       .  S
Zr278       O291   2.428       .  S
Zr278       O284   2.395       .  S
Zr278       O285   2.392       .  S
Zr279       O281   2.437       .  S
Zr279       O303   2.436       .  S
Zr279       O305   2.419       .  S
Zr279       O283   2.390       .  S
Zr279       O286   2.387       .  S
Zr280       O306   2.435       .  S
Zr280       O307   2.435       .  S
Zr280       O282   2.436       .  S
Zr280       O283   2.390       .  S
Zr280       O284   2.385       .  S
O281        H318   0.990       .  S
O282        H313   0.990       .  S
O282        H327   0.990       .  S
O284        H310   0.964       .  S
O285       Zr295   2.383       .  S
O286       Zr295   2.381       .  S
O286        H311   0.966       .  S
C287       C1629   1.483       .  S
C288       C1651   1.478       .  S
C289       C2069   1.481       .  S
O290        H326   0.990       .  S
O291        C293   1.284       .  A
O292        C293   1.287       .  A
C293       C1695   1.478       .  S
O294       Zr295   2.439       .  S
O294        H323   0.990       .  S
Zr295       O298   2.438       .  S
Zr295       O299   2.438       .  S
Zr295       O300   2.389       .  S
O296        C301   1.288       .  A
O297        H314   0.990       .  S
O297        H329   0.990       .  S
O298        H315   0.990       .  S
O299        H319   0.990       .  S
O299        H328   0.990       .  S
O300        C301   1.277       .  A
C301       C1619   1.484       .  S
O302        H321   0.991       .  S
O302        H325   0.991       .  S
O303        H317   0.990       .  S
O303        H324   0.990       .  S
O304        C308   1.285       .  A
O305        C308   1.282       .  A
O306        H316   0.990       .  S
O307        H320   0.990       .  S
C308       C1673   1.479       .  S
Zr331       O332   2.441       .  S
Zr331       O333   2.456       .  S
Zr331       O334   2.464       .  S
Zr331       O337   2.445       .  S
Zr331       O339   2.382       .  S
Zr331       O340   2.391       .  S
Zr331       O341   2.412       .  S
Zr331       O342   2.399       .  S
O332        H388   0.990       .  S
O332        H396   0.991       .  S
O333        C353   1.288       .  A
O334        C355   1.289       .  A
O335       Zr345   2.410       .  S
O335        C354   1.282       .  A
O336       Zr344   2.420       .  S
O336        C355   1.283       .  A
O337        C354   1.287       .  A
O338       Zr346   2.407       .  S
O338        C353   1.279       .  A
O339       Zr344   2.396       .  S
O339       Zr346   2.381       .  S
O340       Zr345   2.396       .  S
O340       Zr346   2.376       .  S
O340        H375   0.966       .  S
O341       Zr344   2.397       .  S
O341       Zr361   2.385       .  S
O341        H378   0.965       .  S
O342       Zr345   2.385       .  S
O342       Zr361   2.378       .  S
Zr343       O368   2.442       .  S
Zr343       O362   2.468       .  S
Zr343       O370   2.452       .  S
Zr343       O358   2.467       .  S
Zr343       O349   2.409       .  S
Zr343       O350   2.416       .  S
Zr343       O351   2.384       .  S
Zr343       O352   2.385       .  S
Zr344       O363   2.435       .  S
Zr344       O356   2.435       .  S
Zr344       O357   2.417       .  S
Zr344       O350   2.399       .  S
Zr344       O351   2.395       .  S
Zr345       O347   2.435       .  S
Zr345       O369   2.439       .  S
Zr345       O371   2.421       .  S
Zr345       O349   2.388       .  S
Zr345       O352   2.390       .  S
Zr346       O372   2.435       .  S
Zr346       O373   2.435       .  S
Zr346       O348   2.437       .  S
Zr346       O349   2.394       .  S
Zr346       O350   2.385       .  S
O347        H384   0.990       .  S
O348        H379   0.990       .  S
O348        H393   0.990       .  S
O350        H376   0.965       .  S
O351       Zr361   2.383       .  S
O352       Zr361   2.381       .  S
O352        H377   0.966       .  S
C353       C1607   1.489       .  S
C354       C1541   1.478       .  S
C355       C1949   1.485       .  S
O356        H392   0.990       .  S
O357        C359   1.282       .  A
O358        C359   1.290       .  A
C359       C1585   1.483       .  S
O360       Zr361   2.438       .  S
O360        H389   0.990       .  S
Zr361       O364   2.436       .  S
Zr361       O365   2.441       .  S
Zr361       O366   2.388       .  S
O362        C367   1.289       .  A
O363        H380   0.990       .  S
O363        H395   0.990       .  S
O364        H381   0.990       .  S
O365        H385   0.990       .  S
O365        H394   0.990       .  S
O366        C367   1.277       .  A
C367       C1641   1.488   1_556  S
O368        H387   0.991       .  S
O368        H391   0.990       .  S
O369        H383   0.990       .  S
O369        H390   0.990       .  S
O370        C374   1.289       .  A
O371        C374   1.283       .  A
O372        H382   0.990       .  S
O373        H386   0.990       .  S
C374       C1563   1.487       .  S
Zr397       O398   2.443       .  S
Zr397       O399   2.452       .  S
Zr397       O400   2.447       .  S
Zr397       O403   2.443       .  S
Zr397       O405   2.381   1_565  S
Zr397       O406   2.388   1_565  S
Zr397       O407   2.412       .  S
Zr397       O408   2.397       .  S
O398        H454   0.990       .  S
O398        H462   0.991       .  S
O399        C419   1.286   1_565  A
O400        C421   1.286       .  A
O401       Zr411   2.419   1_565  S
O401        C420   1.284       .  A
O402       Zr410   2.434   1_565  S
O402        C421   1.285       .  A
O403        C420   1.286       .  A
O404       Zr412   2.394       .  S
O404        C419   1.277       .  A
O405       Zr410   2.397       .  S
O405       Zr412   2.381       .  S
O406       Zr411   2.390       .  S
O406       Zr412   2.380       .  S
O406        H441   0.966       .  S
O407       Zr410   2.396   1_565  S
O407       Zr427   2.382   1_556  S
O407        H444   0.965       .  S
O408       Zr411   2.380   1_565  S
O408       Zr427   2.379   1_556  S
Zr409       O434   2.441       .  S
Zr409       O428   2.464       .  S
Zr409       O436   2.453       .  S
Zr409       O424   2.468       .  S
Zr409       O415   2.407   1_554  S
Zr409       O416   2.417   1_554  S
Zr409       O417   2.386       .  S
Zr409       O418   2.389       .  S
Zr410       O429   2.436   1_546  S
Zr410       O422   2.434       .  S
Zr410       O423   2.420   1_556  S
Zr410       O416   2.403       .  S
Zr410       O417   2.397   1_556  S
Zr411       O413   2.436   1_546  S
Zr411       O435   2.437       .  S
Zr411       O437   2.415   1_556  S
Zr411       O415   2.387       .  S
Zr411       O418   2.391   1_556  S
Zr412       O438   2.437       .  S
Zr412       O439   2.435       .  S
Zr412       O414   2.438       .  S
Zr412       O415   2.389       .  S
Zr412       O416   2.379       .  S
O413        H450   0.990       .  S
O414        H445   0.990       .  S
O414        H459   0.990       .  S
O416        H442   0.965       .  S
O417       Zr427   2.382   1_545  S
O418       Zr427   2.382   1_545  S
O418        H443   0.966       .  S
C419       C1453   1.481       .  S
C420       C1497   1.475       .  S
C421       C1597   1.485       .  S
O422        H458   0.990       .  S
O423        C425   1.283       .  A
O424        C425   1.290       .  A
C425       C1883   1.484       .  S
O426       Zr427   2.439       .  S
O426        H455   0.990       .  S
Zr427       O430   2.437       .  S
Zr427       O431   2.439       .  S
Zr427       O432   2.398       .  S
O428        C433   1.289       .  A
O429        H446   0.990       .  S
O429        H461   0.990       .  S
O430        H447   0.990       .  S
O431        H451   0.990       .  S
O431        H460   0.990       .  S
O432        C433   1.278   1_565  A
C433       C1475   1.489       .  S
O434        H453   0.991       .  S
O434        H457   0.990       .  S
O435        H449   0.990       .  S
O435        H456   0.990       .  S
O436        C440   1.288       .  A
O437        C440   1.283       .  A
O438        H448   0.990       .  S
O439        H452   0.990       .  S
C440       C1519   1.487       .  S
Zr463       O464   2.441       .  S
Zr463       O465   2.462       .  S
Zr463       O466   2.459       .  S
Zr463       O469   2.460       .  S
Zr463       O471   2.383   1_565  S
Zr463       O472   2.390   1_565  S
Zr463       O473   2.418       .  S
Zr463       O474   2.399       .  S
O464        H520   0.990       .  S
O464        H528   0.990       .  S
O465        C485   1.288       .  A
O466        C487   1.288       .  A
O467       Zr477   2.430   1_565  S
O467        C486   1.285       .  A
O468       Zr476   2.417   1_565  S
O468        C487   1.283       .  A
O469        C486   1.290       .  A
O470       Zr478   2.403       .  S
O470        C485   1.278   1_545  A
O471       Zr476   2.400       .  S
O471       Zr478   2.380       .  S
O472       Zr477   2.394       .  S
O472       Zr478   2.383       .  S
O472        H507   0.966       .  S
O473       Zr476   2.400   1_565  S
O473       Zr493   2.390       .  S
O473        H510   0.965       .  S
O474       Zr477   2.381   1_565  S
O474       Zr493   2.381       .  S
Zr475       O500   2.442       .  S
Zr475       O494   2.448       .  S
Zr475       O502   2.435       .  S
Zr475       O490   2.452       .  S
Zr475       O481   2.404       .  S
Zr475       O482   2.410       .  S
Zr475       O483   2.381       .  S
Zr475       O484   2.388       .  S
Zr476       O495   2.436   1_545  S
Zr476       O488   2.434       .  S
Zr476       O489   2.427       .  S
Zr476       O482   2.401       .  S
Zr476       O483   2.390       .  S
Zr477       O479   2.436   1_545  S
Zr477       O501   2.437       .  S
Zr477       O503   2.419       .  S
Zr477       O481   2.392       .  S
Zr477       O484   2.392       .  S
Zr478       O504   2.436       .  S
Zr478       O505   2.436       .  S
Zr478       O480   2.439       .  S
Zr478       O481   2.390       .  S
Zr478       O482   2.388       .  S
O479        H516   0.990       .  S
O480        H511   0.990       .  S
O480        H525   0.990       .  S
O482        H508   0.965       .  S
O483       Zr493   2.383   1_545  S
O484       Zr493   2.379   1_545  S
O484        H509   0.966       .  S
C485       C1487   1.490       .  S
C486       C1421   1.492       .  S
C487       C1707   1.484       .  S
O488        H524   0.990       .  S
O489        C491   1.284       .  A
O490        C491   1.287       .  A
C491       C1773   1.485       .  S
O492       Zr493   2.439       .  S
O492        H521   0.991       .  S
Zr493       O496   2.437       .  S
Zr493       O497   2.440       .  S
Zr493       O498   2.400       .  S
O494        C499   1.286       .  A
O495        H512   0.990       .  S
O495        H527   0.990       .  S
O496        H513   0.990       .  S
O497        H517   0.990       .  S
O497        H526   0.990       .  S
O498        C499   1.279   1_565  A
C499       C1465   1.483       .  S
O500        H519   0.990       .  S
O500        H523   0.990       .  S
O501        H515   0.990       .  S
O501        H522   0.990       .  S
O502        C506   1.284       .  A
O503        C506   1.283       .  A
O504        H514   0.990       .  S
O505        H518   0.990       .  S
C506       C1443   1.475       .  S
Zr529       O530   2.442       .  S
Zr529       O531   2.451       .  S
Zr529       O532   2.466       .  S
Zr529       O535   2.460       .  S
Zr529       O537   2.384       .  S
Zr529       O538   2.393       .  S
Zr529       O539   2.414       .  S
Zr529       O540   2.401       .  S
O530        H586   0.990       .  S
O530        H594   0.991       .  S
O531        C551   1.286       .  A
O532        C553   1.289       .  A
O533       Zr543   2.428       .  S
O533        C552   1.285       .  A
O534       Zr542   2.411       .  S
O534        C553   1.281       .  A
O535        C552   1.290       .  A
O536       Zr544   2.413       .  S
O536        C551   1.280       .  A
O537       Zr542   2.396       .  S
O537       Zr544   2.382       .  S
O538       Zr543   2.398       .  S
O538       Zr544   2.380       .  S
O538        H573   0.965       .  S
O539       Zr542   2.399       .  S
O539       Zr559   2.382       .  S
O539        H576   0.964       .  S
O540       Zr543   2.386       .  S
O540       Zr559   2.380       .  S
Zr541       O566   2.441       .  S
Zr541       O560   2.455       .  S
Zr541       O568   2.456       .  S
Zr541       O556   2.457       .  S
Zr541       O547   2.406       .  S
Zr541       O548   2.416       .  S
Zr541       O549   2.381       .  S
Zr541       O550   2.389       .  S
Zr542       O561   2.437       .  S
Zr542       O554   2.434       .  S
Zr542       O555   2.417       .  S
Zr542       O548   2.398       .  S
Zr542       O549   2.390       .  S
Zr543       O545   2.435       .  S
Zr543       O567   2.434       .  S
Zr543       O569   2.434       .  S
Zr543       O547   2.389       .  S
Zr543       O550   2.393       .  S
Zr544       O570   2.437       .  S
Zr544       O571   2.436       .  S
Zr544       O546   2.438       .  S
Zr544       O547   2.392       .  S
Zr544       O548   2.390       .  S
O545        H582   0.990       .  S
O546        H577   0.990       .  S
O546        H591   0.990       .  S
O548        H574   0.965       .  S
O549       Zr559   2.382       .  S
O550       Zr559   2.384       .  S
O550        H575   0.966       .  S
C551       C1321   1.489       .  S
C552       C1409   1.485       .  S
C553       C1387   1.482       .  S
O554        H590   0.990       .  S
O555        C557   1.282       .  A
O556        C557   1.288       .  A
C557       C1365   1.479       .  S
O558       Zr559   2.439       .  S
O558        H587   0.990       .  S
Zr559       O562   2.438       .  S
Zr559       O563   2.439       .  S
Zr559       O564   2.393       .  S
O560        C565   1.288       .  A
O561        H578   0.990       .  S
O561        H593   0.990       .  S
O562        H579   0.990       .  S
O563        H583   0.990       .  S
O563        H592   0.990       .  S
O564        C565   1.277       .  A
C565       C1343   1.483       .  S
O566        H585   0.990       .  S
O566        H589   0.990       .  S
O567        H581   0.990       .  S
O567        H588   0.990       .  S
O568        C572   1.288       .  A
O569        C572   1.286       .  A
O570        H580   0.990       .  S
O571        H584   0.990       .  S
C572       C2047   1.491       .  S
Zr595       O596   2.441       .  S
Zr595       O597   2.447       .  S
Zr595       O598   2.456       .  S
Zr595       O601   2.449       .  S
Zr595       O603   2.383       .  S
Zr595       O604   2.393       .  S
Zr595       O605   2.412       .  S
Zr595       O606   2.400       .  S
O596        H652   0.990       .  S
O596        H660   0.991       .  S
O597        C617   1.285   1_556  A
O598        C619   1.288       .  A
O599       Zr609   2.412       .  S
O599        C618   1.282       .  A
O600       Zr608   2.407       .  S
O600        C619   1.280       .  A
O601        C618   1.287       .  A
O602       Zr610   2.405       .  S
O602        C617   1.279   1_556  A
O603       Zr608   2.391       .  S
O603       Zr610   2.382       .  S
O604       Zr609   2.391       .  S
O604       Zr610   2.381       .  S
O604        H639   0.966       .  S
O605       Zr608   2.398       .  S
O605       Zr625   2.385       .  S
O605        H642   0.965       .  S
O606       Zr609   2.382       .  S
O606       Zr625   2.381       .  S
Zr607       O632   2.441       .  S
Zr607       O626   2.455       .  S
Zr607       O634   2.441       .  S
Zr607       O622   2.453       .  S
Zr607       O613   2.403       .  S
Zr607       O614   2.415       .  S
Zr607       O615   2.377       .  S
Zr607       O616   2.389       .  S
Zr608       O627   2.436       .  S
Zr608       O620   2.435       .  S
Zr608       O621   2.407       .  S
Zr608       O614   2.396       .  S
Zr608       O615   2.391       .  S
Zr609       O611   2.436       .  S
Zr609       O633   2.438       .  S
Zr609       O635   2.411       .  S
Zr609       O613   2.382       .  S
Zr609       O616   2.395       .  S
Zr610       O636   2.437       .  S
Zr610       O637   2.435       .  S
Zr610       O612   2.437       .  S
Zr610       O613   2.384       .  S
Zr610       O614   2.387       .  S
O611        H648   0.990       .  S
O612        H643   0.990       .  S
O612        H657   0.990       .  S
O614        H640   0.965       .  S
O615       Zr625   2.381       .  S
O616       Zr625   2.382       .  S
O616        H641   0.966       .  S
C617       C1355   1.485       .  S
C618       C1509   1.480       .  S
C619       C1299   1.478       .  S
O620        H656   0.990       .  S
O621        C623   1.280       .  A
O622        C623   1.287       .  A
C623       C1277   1.473       .  S
O624       Zr625   2.439       .  S
O624        H653   0.990       .  S
Zr625       O628   2.436       .  S
Zr625       O629   2.440       .  S
Zr625       O630   2.398       .  S
O626        C631   1.287       .  A
O627        H644   0.990       .  S
O627        H659   0.990       .  S
O628        H645   0.990       .  S
O629        H649   0.990       .  S
O629        H658   0.990       .  S
O630        C631   1.278       .  A
C631       C1333   1.487       .  S
O632        H651   0.990       .  S
O632        H655   0.990       .  S
O633        H647   0.990       .  S
O633        H654   0.990       .  S
O634        C638   1.285       .  A
O635        C638   1.282       .  A
O636        H646   0.990       .  S
O637        H650   0.990       .  S
C638       C1927   1.481       .  S
Zr661       O662   2.442       .  S
Zr661       O663   2.450       .  S
Zr661       O664   2.446       .  S
Zr661       O667   2.449       .  S
Zr661       O669   2.387       .  S
Zr661       O670   2.384       .  S
Zr661       O671   2.415       .  S
Zr661       O672   2.399       .  S
O662        H718   0.990       .  S
O662        H726   0.991       .  S
O663        C683   1.287       .  A
O664        C685   1.285       .  A
O665       Zr675   2.421       .  S
O665        C684   1.283       .  A
O666       Zr674   2.425       .  S
O666        C685   1.284       .  A
O667        C684   1.286       .  A
O668       Zr676   2.406       .  S
O668        C683   1.278       .  A
O669       Zr674   2.399       .  S
O669       Zr676   2.385       .  S
O670       Zr675   2.388       .  S
O670       Zr676   2.377       .  S
O670        H705   0.966       .  S
O671       Zr674   2.399       .  S
O671       Zr691   2.387       .  S
O671        H708   0.965       .  S
O672       Zr675   2.385       .  S
O672       Zr691   2.389       .  S
Zr673       O698   2.442       .  S
Zr673       O692   2.458       .  S
Zr673       O700   2.454       .  S
Zr673       O688   2.451       .  S
Zr673       O679   2.407       .  S
Zr673       O680   2.414       .  S
Zr673       O681   2.383       .  S
Zr673       O682   2.388       .  S
Zr674       O693   2.437       .  S
Zr674       O686   2.436       .  S
Zr674       O687   2.426       .  S
Zr674       O680   2.394       .  S
Zr674       O681   2.392       .  S
Zr675       O677   2.435       .  S
Zr675       O699   2.436       .  S
Zr675       O701   2.411       .  S
Zr675       O679   2.394       .  S
Zr675       O682   2.391       .  S
Zr676       O702   2.435       .  S
Zr676       O703   2.437       .  S
Zr676       O678   2.438       .  S
Zr676       O679   2.390       .  S
Zr676       O680   2.385       .  S
O677        H714   0.990       .  S
O678        H709   0.991       .  S
O678        H723   0.990       .  S
O680        H706   0.965       .  S
O681       Zr691   2.383       .  S
O682       Zr691   2.381       .  S
O682        H707   0.966       .  S
C683       C1201   1.486   1_554  S
C684       C1531   1.479       .  S
C685       C1255   1.480       .  S
O686        H722   0.990       .  S
O687        C689   1.284       .  A
O688        C689   1.287       .  A
C689       C1245   1.483       .  S
O690       Zr691   2.440       .  S
O690        H719   0.990       .  S
Zr691       O694   2.438       .  S
Zr691       O695   2.439       .  S
Zr691       O696   2.402       .  S
O692        C697   1.288       .  A
O693        H710   0.990       .  S
O693        H725   0.990       .  S
O694        H711   0.990       .  S
O695        H715   0.990       .  S
O695        H724   0.990       .  S
O696        C697   1.279       .  A
C697       C1211   1.485       .  S
O698        H717   0.990       .  S
O698        H721   0.991       .  S
O699        H713   0.990       .  S
O699        H720   0.990       .  S
O700        C704   1.287       .  A
O701        C704   1.282       .  A
O702        H712   0.990       .  S
O703        H716   0.990       .  S
C704       C2025   1.479       .  S
Zr727       O728   2.444       .  S
Zr727       O729   2.452       .  S
Zr727       O730   2.443       .  S
Zr727       O733   2.447       .  S
Zr727       O735   2.382       .  S
Zr727       O736   2.388       .  S
Zr727       O737   2.415       .  S
Zr727       O738   2.399       .  S
O728        H784   0.990       .  S
O728        H792   0.991       .  S
O729        C749   1.287       .  A
O730        C751   1.285       .  A
O731       Zr741   2.410       .  S
O731        C750   1.282       .  A
O732       Zr740   2.422       .  S
O732        C751   1.283       .  A
O733        C750   1.287       .  A
O734       Zr742   2.402       .  S
O734        C749   1.278       .  A
O735       Zr740   2.397       .  S
O735       Zr742   2.379       .  S
O736       Zr741   2.392       .  S
O736       Zr742   2.379       .  S
O736        H771   0.966       .  S
O737       Zr740   2.399       .  S
O737       Zr757   2.388       .  S
O737        H774   0.965       .  S
O738       Zr741   2.385       .  S
O738       Zr757   2.381       .  S
Zr739       O764   2.442       .  S
Zr739       O758   2.454       .  S
Zr739       O766   2.453       .  S
Zr739       O754   2.444       .  S
Zr739       O745   2.401       .  S
Zr739       O746   2.417       .  S
Zr739       O747   2.385       .  S
Zr739       O748   2.385       .  S
Zr740       O759   2.435       .  S
Zr740       O752   2.436       .  S
Zr740       O753   2.424       .  S
Zr740       O746   2.401       .  S
Zr740       O747   2.390       .  S
Zr741       O743   2.436       .  S
Zr741       O765   2.436       .  S
Zr741       O767   2.412       .  S
Zr741       O745   2.387       .  S
Zr741       O748   2.390       .  S
Zr742       O768   2.436       .  S
Zr742       O769   2.434       .  S
Zr742       O744   2.437       .  S
Zr742       O745   2.391       .  S
Zr742       O746   2.383       .  S
O743        H780   0.990       .  S
O744        H775   0.990       .  S
O744        H789   0.990       .  S
O746        H772   0.965       .  S
O747       Zr757   2.380       .  S
O748       Zr757   2.379       .  S
O748        H773   0.966       .  S
C749       C1223   1.485       .  S
C750       C1431   1.480       .  S
C751       C1179   1.481       .  S
O752        H788   0.990       .  S
O753        C755   1.283       .  A
O754        C755   1.285       .  A
C755       C1145   1.477       .  S
O756       Zr757   2.439       .  S
O756        H785   0.990       .  S
Zr757       O760   2.438       .  S
Zr757       O761   2.439       .  S
Zr757       O762   2.398       .  S
O758        C763   1.287       .  A
O759        H776   0.990       .  S
O759        H791   0.990       .  S
O760        H777   0.990       .  S
O761        H781   0.990       .  S
O761        H790   0.990       .  S
O762        C763   1.279       .  A
C763       C1189   1.487       .  S
O764        H783   0.991       .  S
O764        H787   0.990       .  S
O765        H779   0.990       .  S
O765        H786   0.990       .  S
O766        C770   1.287       .  A
O767        C770   1.281       .  A
O768        H778   0.990       .  S
O769        H782   0.990       .  S
C770       C1905   1.482       .  S
Zr793       O794   2.441       .  S
Zr793       O795   2.456       .  S
Zr793       O796   2.458       .  S
Zr793       O799   2.449       .  S
Zr793       O801   2.384       .  S
Zr793       O802   2.391       .  S
Zr793       O803   2.415   1_554  S
Zr793       O804   2.400   1_554  S
O794        H850   0.990       .  S
O794        H858   0.991       .  S
O795        C815   1.287       .  A
O796        C817   1.288       .  A
O797       Zr807   2.417   1_554  S
O797        C816   1.283       .  A
O798       Zr806   2.408   1_554  S
O798        C817   1.281       .  A
O799        C816   1.286       .  A
O800       Zr808   2.406       .  S
O800        C815   1.279       .  A
O801       Zr806   2.395   1_554  S
O801       Zr808   2.380       .  S
O802       Zr807   2.391   1_554  S
O802       Zr808   2.379       .  S
O802        H837   0.966       .  S
O803       Zr806   2.402       .  S
O803       Zr823   2.382       .  S
O803        H840   0.965       .  S
O804       Zr807   2.388       .  S
O804       Zr823   2.381       .  S
Zr805       O830   2.443       .  S
Zr805       O824   2.452       .  S
Zr805       O832   2.442       .  S
Zr805       O820   2.454       .  S
Zr805       O811   2.405       .  S
Zr805       O812   2.413   1_556  S
Zr805       O813   2.379       .  S
Zr805       O814   2.387       .  S
Zr806       O825   2.436       .  S
Zr806       O818   2.436   1_556  S
Zr806       O819   2.419       .  S
Zr806       O812   2.394   1_556  S
Zr806       O813   2.393       .  S
Zr807       O809   2.436       .  S
Zr807       O831   2.436   1_556  S
Zr807       O833   2.425       .  S
Zr807       O811   2.387       .  S
Zr807       O814   2.390       .  S
Zr808       O834   2.436       .  S
Zr808       O835   2.436       .  S
Zr808       O810   2.438       .  S
Zr808       O811   2.389   1_554  S
Zr808       O812   2.390       .  S
O809        H846   0.990       .  S
O810        H841   0.990       .  S
O810        H855   0.990       .  S
O812        H838   0.965       .  S
O813       Zr823   2.383       .  S
O814       Zr823   2.380       .  S
O814        H839   0.966       .  S
C815       C1123   1.489       .  S
C816       C1849   1.477       .  S
C817       C1267   1.476       .  S
O818        H854   0.990       .  S
O819        C821   1.282       .  A
O820        C821   1.287       .  A
C821       C1311   1.480       .  S
O822       Zr823   2.438       .  S
O822        H851   0.991       .  S
Zr823       O826   2.437       .  S
Zr823       O827   2.439       .  S
Zr823       O828   2.395       .  S
O824        C829   1.287       .  A
O825        H842   0.990       .  S
O825        H857   0.990       .  S
O826        H843   0.990       .  S
O827        H847   0.990       .  S
O827        H856   0.990       .  S
O828        C829   1.278       .  A
C829       C1101   1.483       .  S
O830        H849   0.991       .  S
O830        H853   0.990       .  S
O831        H845   0.989       .  S
O831        H852   0.990       .  S
O832        C836   1.286       .  A
O833        C836   1.283       .  A
O834        H844   0.990       .  S
O835        H848   0.990       .  S
C836       C1575   1.479       .  S
Zr859       O860   2.442       .  S
Zr859       O861   2.444       .  S
Zr859       O862   2.444       .  S
Zr859       O865   2.440       .  S
Zr859       O867   2.384       .  S
Zr859       O868   2.385       .  S
Zr859       O869   2.410       .  S
Zr859       O870   2.397       .  S
O860        H916   0.990       .  S
O860        H924   0.991       .  S
O861        C881   1.285       .  A
O862        C883   1.285       .  A
O863       Zr873   2.418       .  S
O863        C882   1.282       .  A
O864       Zr872   2.418       .  S
O864        C883   1.282       .  A
O865        C882   1.285       .  A
O866       Zr874   2.402       .  S
O866        C881   1.278       .  A
O867       Zr872   2.396       .  S
O867       Zr874   2.384       .  S
O868       Zr873   2.385       .  S
O868       Zr874   2.373       .  S
O868        H903   0.966       .  S
O869       Zr872   2.400       .  S
O869       Zr889   2.391       .  S
O869        H906   0.965       .  S
O870       Zr873   2.387       .  S
O870       Zr889   2.385       .  S
Zr871       O896   2.443       .  S
Zr871       O890   2.458       .  S
Zr871       O898   2.448       .  S
Zr871       O886   2.459       .  S
Zr871       O877   2.411       .  S
Zr871       O878   2.414       .  S
Zr871       O879   2.382       .  S
Zr871       O880   2.386       .  S
Zr872       O891   2.436       .  S
Zr872       O884   2.435       .  S
Zr872       O885   2.424       .  S
Zr872       O878   2.396       .  S
Zr872       O879   2.393       .  S
Zr873       O875   2.434       .  S
Zr873       O897   2.437       .  S
Zr873       O899   2.405       .  S
Zr873       O877   2.393       .  S
Zr873       O880   2.395       .  S
Zr874       O900   2.436       .  S
Zr874       O901   2.435       .  S
Zr874       O876   2.437       .  S
Zr874       O877   2.389       .  S
Zr874       O878   2.382       .  S
O875        H912   0.990       .  S
O876        H907   0.990       .  S
O876        H921   0.990       .  S
O878        H904   0.964       .  S
O879       Zr889   2.385       .  S
O880       Zr889   2.378       .  S
O880        H905   0.966       .  S
C881       C1113   1.483       .  S
C882       C1739   1.470       .  S
C883       C1167   1.474       .  S
O884        H920   0.990       .  S
O885        C887   1.284       .  A
O886        C887   1.289       .  A
C887       C1399   1.484       .  S
O888       Zr889   2.439       .  S
O888        H917   0.991       .  S
Zr889       O892   2.437       .  S
Zr889       O893   2.442       .  S
Zr889       O894   2.398       .  S
O890        C895   1.288       .  A
O891        H908   0.990       .  S
O891        H923   0.990       .  S
O892        H909   0.990       .  S
O893        H913   0.989       .  S
O893        H922   0.990       .  S
O894        C895   1.278       .  A
C895       C1135   1.487       .  S
O896        H915   0.991       .  S
O896        H919   0.991       .  S
O897        H911   0.990       .  S
O897        H918   0.990       .  S
O898        C902   1.286       .  A
O899        C902   1.281       .  A
O900        H910   0.990       .  S
O901        H914   0.990       .  S
C902       C1685   1.479       .  S
Zr925       O926   2.442       .  S
Zr925       O927   2.459       .  S
Zr925       O928   2.447       .  S
Zr925       O931   2.437   1_655  S
Zr925       O933   2.383       .  S
Zr925       O934   2.388   1_655  S
Zr925       O935   2.414       .  S
Zr925       O936   2.404   1_655  S
O926        H982   0.990       .  S
O926        H990   0.991       .  S
O927        C947   1.288       .  A
O928        C949   1.286       .  A
O929       Zr939   2.411       .  S
O929        C948   1.282       .  A
O930       Zr938   2.418       .  S
O930        C949   1.282       .  A
O931        C948   1.285       .  A
O932       Zr940   2.407       .  S
O932        C947   1.280       .  A
O933       Zr938   2.398       .  S
O933       Zr940   2.382       .  S
O934       Zr939   2.390       .  S
O934       Zr940   2.377   1_455  S
O934        H969   0.966       .  S
O935       Zr938   2.398       .  S
O935       Zr955   2.396   1_655  S
O935        H972   0.966       .  S
O936       Zr939   2.385       .  S
O936       Zr955   2.387       .  S
Zr937       O962   2.441       .  S
Zr937       O956   2.439       .  S
Zr937       O964   2.445       .  S
Zr937       O952   2.450   1_455  S
Zr937       O943   2.401       .  S
Zr937       O944   2.412   1_455  S
Zr937       O945   2.384   1_455  S
Zr937       O946   2.386       .  S
Zr938       O957   2.437       .  S
Zr938       O950   2.434       .  S
Zr938       O951   2.420       .  S
Zr938       O944   2.400       .  S
Zr938       O945   2.393       .  S
Zr939       O941   2.435       .  S
Zr939       O963   2.436       .  S
Zr939       O965   2.413       .  S
Zr939       O943   2.386       .  S
Zr939       O946   2.390       .  S
Zr940       O966   2.436   1_655  S
Zr940       O967   2.435       .  S
Zr940       O942   2.438       .  S
Zr940       O943   2.390   1_655  S
Zr940       O944   2.382       .  S
O941        H978   0.990       .  S
O942        H973   0.990       .  S
O942        H987   0.990       .  S
O944        H970   0.965       .  S
O945       Zr955   2.382   1_655  S
O946       Zr955   2.379       .  S
O946        H971   0.966       .  S
C947       C1057   1.491       .  S
C948       C1663   1.475       .  S
C949       C1377   1.481       .  S
O950        H986   0.990       .  S
O951        C953   1.283       .  A
O952        C953   1.287       .  A
C953       C1233   1.481       .  S
O954       Zr955   2.439       .  S
O954        H983   0.990       .  S
Zr955       O958   2.438   1_455  S
Zr955       O959   2.441       .  S
Zr955       O960   2.411       .  S
O956        C961   1.284       .  A
O957        H974   0.990       .  S
O957        H989   0.990       .  S
O958        H975   0.990       .  S
O959        H979   0.990       .  S
O959        H988   0.990       .  S
O960        C961   1.280       .  A
C961       C1091   1.480       .  S
O962        H981   0.990   1_455  S
O962        H985   0.990   1_455  S
O963        H977   0.990       .  S
O963        H984   0.990       .  S
O964        C968   1.286       .  A
O965        C968   1.281       .  A
O966        H976   0.990       .  S
O967        H980   0.990   1_655  S
C968       C1827   1.479       .  S
Zr991       O992   2.443   1_655  S
Zr991       O993   2.448       .  S
Zr991       O994   2.451       .  S
Zr991       O997   2.439   1_655  S
Zr991       O999   2.382       .  S
Zr991      O1000   2.387   1_655  S
Zr991      O1001   2.411       .  S
Zr991      O1002   2.400   1_655  S
O992       H1048   0.990   1_455  S
O992       H1056   0.991   1_455  S
O993       C1013   1.286       .  A
O994       C1015   1.286       .  A
O995      Zr1005   2.414       .  S
O995       C1014   1.282       .  A
O996      Zr1004   2.418       .  S
O996       C1015   1.282       .  A
O997       C1014   1.286       .  A
O998      Zr1006   2.403       .  S
O998       C1013   1.279       .  A
O999      Zr1004   2.395       .  S
O999      Zr1006   2.384       .  S
O1000     Zr1005   2.392       .  S
O1000     Zr1006   2.374   1_455  S
O1000      H1035   0.965       .  S
O1001     Zr1004   2.401       .  S
O1001     Zr1021   2.392       .  S
O1001      H1038   0.965       .  S
O1002     Zr1005   2.387       .  S
O1002     Zr1021   2.385   1_455  S
Zr1003     O1028   2.442       .  S
Zr1003     O1022   2.456       .  S
Zr1003     O1030   2.451   1_655  S
Zr1003     O1018   2.444       .  S
Zr1003     O1009   2.407   1_655  S
Zr1003     O1010   2.411       .  S
Zr1003     O1011   2.380       .  S
Zr1003     O1012   2.382   1_655  S
Zr1004     O1023   2.437       .  S
Zr1004     O1016   2.436       .  S
Zr1004     O1017   2.424       .  S
Zr1004     O1010   2.391       .  S
Zr1004     O1011   2.395       .  S
Zr1005     O1007   2.437       .  S
Zr1005     O1029   2.438       .  S
Zr1005     O1031   2.416       .  S
Zr1005     O1009   2.389       .  S
Zr1005     O1012   2.396       .  S
Zr1006     O1032   2.435   1_655  S
Zr1006     O1033   2.436   1_655  S
Zr1006     O1008   2.436       .  S
Zr1006     O1009   2.387   1_655  S
Zr1006     O1010   2.380       .  S
O1007      H1044   0.990       .  S
O1008      H1039   0.990       .  S
O1008      H1053   0.990       .  S
O1010      H1036   0.964       .  S
O1011     Zr1021   2.385       .  S
O1012     Zr1021   2.382   1_455  S
O1012      H1037   0.966       .  S
C1013      C1079   1.481       .  S
C1014      C1553   1.474       .  S
C1015      C1289   1.480       .  S
O1016      H1052   0.990       .  S
O1017      C1019   1.284       .  A
O1018      C1019   1.287       .  A
C1019      C1157   1.482       .  S
O1020     Zr1021   2.439       .  S
O1020      H1049   0.990   1_655  S
Zr1021     O1024   2.436       .  S
Zr1021     O1025   2.442   1_655  S
Zr1021     O1026   2.404       .  S
O1022      C1027   1.288       .  A
O1023      H1040   0.990       .  S
O1023      H1055   0.990       .  S
O1024      H1041   0.990       .  S
O1025      H1045   0.990       .  S
O1025      H1054   0.990       .  S
O1026      C1027   1.279       .  A
C1027      C1069   1.489       .  S
O1028      H1047   0.990   1_655  S
O1028      H1051   0.991       .  S
O1029      H1043   0.990       .  S
O1029      H1050   0.990       .  S
O1030      C1034   1.286       .  A
O1031      C1034   1.281       .  A
O1032      H1042   0.990       .  S
O1033      H1046   0.990   1_455  S
C1034      C1729   1.476       .  S
C1057      C1058   1.405       .  A
C1057      C1062   1.405       .  A
C1058      C1059   1.392       .  A
C1058      H1071   1.083       .  S
C1059      C1060   1.410       .  A
C1059      H1072   1.077       .  S
C1060      C1066   1.431       .  A
C1060      C1061   1.424       .  A
C1061      C1063   1.400       .  A
C1061      C1062   1.413       .  A
C1062      H1073   1.084       .  S
C1063      C1064   1.393       .  A
C1063      H1074   1.084       .  S
C1064      C1065   1.402       .  A
C1064      H1075   1.084       .  S
C1065      C1066   1.420       .  A
C1065      C1070   1.407       .  A
C1066      C1067   1.416       .  A
C1067      C1068   1.396       .  A
C1067      H1076   1.077       .  S
C1068      C1069   1.400       .  A
C1068      H1077   1.083       .  S
C1069      C1070   1.408       .  A
C1070      H1078   1.084       .  S
C1079      C1080   1.403       .  A
C1079      C1084   1.401   1_655  A
C1080      C1081   1.393       .  A
C1080      H1093   1.083       .  S
C1081      C1082   1.412       .  A
C1081      H1094   1.077       .  S
C1082      C1088   1.429   1_656  A
C1082      C1083   1.424   1_655  A
C1083      C1085   1.399       .  A
C1083      C1084   1.407       .  A
C1084      H1095   1.084       .  S
C1085      C1086   1.390   1_556  A
C1085      H1096   1.084       .  S
C1086      C1087   1.400       .  A
C1086      H1097   1.084       .  S
C1087      C1088   1.421       .  A
C1087      C1092   1.403       .  A
C1088      C1089   1.416   1_455  A
C1089      C1090   1.396       .  A
C1089      H1098   1.077       .  S
C1090      C1091   1.400   1_655  A
C1090      H1099   1.083       .  S
C1091      C1092   1.403       .  A
C1092      H1100   1.085       .  S
C1101      C1102   1.404       .  A
C1101      C1106   1.401       .  A
C1102      C1103   1.392       .  A
C1102      H1115   1.083       .  S
C1103      C1104   1.411       .  A
C1103      H1116   1.077       .  S
C1104      C1110   1.429       .  A
C1104      C1105   1.424       .  A
C1105      C1107   1.398       .  A
C1105      C1106   1.406       .  A
C1106      H1117   1.084       .  S
C1107      C1108   1.388       .  A
C1107      H1118   1.084       .  S
C1108      C1109   1.400       .  A
C1108      H1119   1.084       .  S
C1109      C1110   1.420       .  A
C1109      C1114   1.400       .  A
C1110      C1111   1.417       .  A
C1111      C1112   1.398       .  A
C1111      H1120   1.077       .  S
C1112      C1113   1.400       .  A
C1112      H1121   1.083       .  S
C1113      C1114   1.405       .  A
C1114      H1122   1.084       .  S
C1123      C1124   1.405       .  A
C1123      C1128   1.403       .  A
C1124      C1125   1.394       .  A
C1124      H1137   1.083       .  S
C1125      C1126   1.411       .  A
C1125      H1138   1.077       .  S
C1126      C1132   1.431       .  A
C1126      C1127   1.425       .  A
C1127      C1129   1.399       .  A
C1127      C1128   1.409       .  A
C1128      H1139   1.084       .  S
C1129      C1130   1.390       .  A
C1129      H1140   1.084       .  S
C1130      C1131   1.400       .  A
C1130      H1141   1.084       .  S
C1131      C1132   1.419       .  A
C1131      C1136   1.402       .  A
C1132      C1133   1.418       .  A
C1133      C1134   1.400       .  A
C1133      H1142   1.077       .  S
C1134      C1135   1.400       .  A
C1134      H1143   1.083       .  S
C1135      C1136   1.406       .  A
C1136      H1144   1.084       .  S
C1145      C1146   1.401       .  A
C1145      C1150   1.401       .  A
C1146      C1147   1.396       .  A
C1146      H1159   1.083       .  S
C1147      C1148   1.414       .  A
C1147      H1160   1.078       .  S
C1148      C1154   1.427       .  A
C1148      C1149   1.421       .  A
C1149      C1151   1.399       .  A
C1149      C1150   1.403       .  A
C1150      H1161   1.085       .  S
C1151      C1152   1.390       .  A
C1151      H1162   1.084       .  S
C1152      C1153   1.400       .  A
C1152      H1163   1.084       .  S
C1153      C1154   1.421       .  A
C1153      C1158   1.403       .  A
C1154      C1155   1.414       .  A
C1155      C1156   1.396       .  A
C1155      H1164   1.078       .  S
C1156      C1157   1.402       .  A
C1156      H1165   1.083       .  S
C1157      C1158   1.403       .  A
C1158      H1166   1.084       .  S
C1167      C1168   1.399       .  A
C1167      C1172   1.401       .  A
C1168      C1169   1.395       .  A
C1168      H1181   1.084       .  S
C1169      C1170   1.414       .  A
C1169      H1182   1.078       .  S
C1170      C1176   1.426       .  A
C1170      C1171   1.422       .  A
C1171      C1173   1.399       .  A
C1171      C1172   1.403       .  A
C1172      H1183   1.085       .  S
C1173      C1174   1.390       .  A
C1173      H1184   1.084       .  S
C1174      C1175   1.399       .  A
C1174      H1185   1.084       .  S
C1175      C1176   1.421       .  A
C1175      C1180   1.403       .  A
C1176      C1177   1.413       .  A
C1177      C1178   1.395       .  A
C1177      H1186   1.078       .  S
C1178      C1179   1.402       .  A
C1178      H1187   1.083       .  S
C1179      C1180   1.403       .  A
C1180      H1188   1.084       .  S
C1189      C1190   1.404       .  A
C1189      C1194   1.404       .  A
C1190      C1191   1.389       .  A
C1190      H1203   1.083       .  S
C1191      C1192   1.409       .  A
C1191      H1204   1.076       .  S
C1192      C1198   1.429       .  A
C1192      C1193   1.424       .  A
C1193      C1195   1.400       .  A
C1193      C1194   1.411       .  A
C1194      H1205   1.084       .  S
C1195      C1196   1.392       .  A
C1195      H1206   1.084       .  S
C1196      C1197   1.401       .  A
C1196      H1207   1.084       .  S
C1197      C1198   1.419       .  A
C1197      C1202   1.405       .  A
C1198      C1199   1.417       .  A
C1199      C1200   1.396       .  A
C1199      H1208   1.076       .  S
C1200      C1201   1.400       .  A
C1200      H1209   1.083       .  S
C1201      C1202   1.407       .  A
C1202      H1210   1.084       .  S
C1211      C1212   1.404       .  A
C1211      C1216   1.402       .  A
C1212      C1213   1.393       .  A
C1212      H1225   1.083       .  S
C1213      C1214   1.411       .  A
C1213      H1226   1.077       .  S
C1214      C1220   1.430       .  A
C1214      C1215   1.424       .  A
C1215      C1217   1.399       .  A
C1215      C1216   1.408       .  A
C1216      H1227   1.084       .  S
C1217      C1218   1.390       .  A
C1217      H1228   1.084       .  S
C1218      C1219   1.401       .  A
C1218      H1229   1.084       .  S
C1219      C1220   1.420       .  A
C1219      C1224   1.403       .  A
C1220      C1221   1.417       .  A
C1221      C1222   1.398       .  A
C1221      H1230   1.077       .  S
C1222      C1223   1.399       .  A
C1222      H1231   1.083       .  S
C1223      C1224   1.406       .  A
C1224      H1232   1.084       .  S
C1233      C1234   1.402       .  A
C1233      C1238   1.402       .  A
C1234      C1235   1.398       .  A
C1234      H1247   1.083       .  S
C1235      C1236   1.415       .  A
C1235      H1248   1.078       .  S
C1236      C1242   1.430       .  A
C1236      C1237   1.422       .  A
C1237      C1239   1.399       .  A
C1237      C1238   1.404       .  A
C1238      H1249   1.085       .  S
C1239      C1240   1.389       .  A
C1239      H1250   1.084       .  S
C1240      C1241   1.399       .  A
C1240      H1251   1.084       .  S
C1241      C1242   1.422       .  A
C1241      C1246   1.404       .  A
C1242      C1243   1.415       .  A
C1243      C1244   1.399       .  A
C1243      H1252   1.078       .  S
C1244      C1245   1.402       .  A
C1244      H1253   1.083       .  S
C1245      C1246   1.402       .  A
C1246      H1254   1.085       .  S
C1255      C1256   1.400       .  A
C1255      C1260   1.404       .  A
C1256      C1257   1.393       .  A
C1256      H1269   1.083       .  S
C1257      C1258   1.414       .  A
C1257      H1270   1.077       .  S
C1258      C1264   1.428       .  A
C1258      C1259   1.422       .  A
C1259      C1261   1.400       .  A
C1259      C1260   1.406       .  A
C1260      H1271   1.084       .  S
C1261      C1262   1.391       .  A
C1261      H1272   1.084       .  S
C1262      C1263   1.400       .  A
C1262      H1273   1.084       .  S
C1263      C1264   1.423       .  A
C1263      C1268   1.406       .  A
C1264      C1265   1.414       .  A
C1265      C1266   1.392       .  A
C1265      H1274   1.077       .  S
C1266      C1267   1.400       .  A
C1266      H1275   1.084       .  S
C1267      C1268   1.402       .  A
C1268      H1276   1.085       .  S
C1277      C1278   1.399       .  A
C1277      C1282   1.400       .  A
C1278      C1279   1.392       .  A
C1278      H1291   1.084       .  S
C1279      C1280   1.413       .  A
C1279      H1292   1.077       .  S
C1280      C1286   1.428       .  A
C1280      C1281   1.423       .  A
C1281      C1283   1.399       .  A
C1281      C1282   1.406       .  A
C1282      H1293   1.085       .  S
C1283      C1284   1.390       .  A
C1283      H1294   1.084       .  S
C1284      C1285   1.400       .  A
C1284      H1295   1.084       .  S
C1285      C1286   1.422       .  A
C1285      C1290   1.405       .  A
C1286      C1287   1.414       .  A
C1287      C1288   1.393       .  A
C1287      H1296   1.077       .  S
C1288      C1289   1.401       .  A
C1288      H1297   1.083       .  S
C1289      C1290   1.403       .  A
C1290      H1298   1.084       .  S
C1299      C1300   1.400       .  A
C1299      C1304   1.404       .  A
C1300      C1301   1.396       .  A
C1300      H1313   1.083       .  S
C1301      C1302   1.415       .  A
C1301      H1314   1.078       .  S
C1302      C1308   1.427       .  A
C1302      C1303   1.420       .  A
C1303      C1305   1.400       .  A
C1303      C1304   1.402       .  A
C1304      H1315   1.085       .  S
C1305      C1306   1.390       .  A
C1305      H1316   1.084       .  S
C1306      C1307   1.400       .  A
C1306      H1317   1.084       .  S
C1307      C1308   1.422       .  A
C1307      C1312   1.405       .  A
C1308      C1309   1.413       .  A
C1309      C1310   1.395       .  A
C1309      H1318   1.078       .  S
C1310      C1311   1.401       .  A
C1310      H1319   1.083       .  S
C1311      C1312   1.403       .  A
C1312      H1320   1.085       .  S
C1321      C1322   1.405       .  A
C1321      C1326   1.403       .  A
C1322      C1323   1.396       .  A
C1322      H1335   1.083       .  S
C1323      C1324   1.413       .  A
C1323      H1336   1.077       .  S
C1324      C1330   1.432       .  A
C1324      C1325   1.424       .  A
C1325      C1327   1.399       .  A
C1325      C1326   1.407       .  A
C1326      H1337   1.084       .  S
C1327      C1328   1.389       .  A
C1327      H1338   1.084       .  S
C1328      C1329   1.400       .  A
C1328      H1339   1.084       .  S
C1329      C1330   1.420       .  A
C1329      C1334   1.403       .  A
C1330      C1331   1.417       .  A
C1331      C1332   1.400       .  A
C1331      H1340   1.077       .  S
C1332      C1333   1.401       .  A
C1332      H1341   1.083       .  S
C1333      C1334   1.406       .  A
C1334      H1342   1.084       .  S
C1343      C1344   1.405       .  A
C1343      C1348   1.400       .  A
C1344      C1345   1.395       .  A
C1344      H1357   1.083       .  S
C1345      C1346   1.412       .  A
C1345      H1358   1.077       .  S
C1346      C1352   1.430       .  A
C1346      C1347   1.424       .  A
C1347      C1349   1.397       .  A
C1347      C1348   1.404       .  A
C1348      H1359   1.084       .  S
C1349      C1350   1.387       .  A
C1349      H1360   1.084       .  S
C1350      C1351   1.399       .  A
C1350      H1361   1.084       .  S
C1351      C1352   1.420       .  A
C1351      C1356   1.400       .  A
C1352      C1353   1.417       .  A
C1353      C1354   1.399       .  A
C1353      H1362   1.077       .  S
C1354      C1355   1.401       .  A
C1354      H1363   1.083       .  S
C1355      C1356   1.404       .  A
C1356      H1364   1.084       .  S
C1365      C1366   1.401       .  A
C1365      C1370   1.401       .  A
C1366      C1367   1.396       .  A
C1366      H1379   1.084       .  S
C1367      C1368   1.415       .  A
C1367      H1380   1.077       .  S
C1368      C1374   1.430       .  A
C1368      C1369   1.423       .  A
C1369      C1371   1.399       .  A
C1369      C1370   1.406       .  A
C1370      H1381   1.085       .  S
C1371      C1372   1.390       .  A
C1371      H1382   1.084       .  S
C1372      C1373   1.399       .  A
C1372      H1383   1.084       .  S
C1373      C1374   1.423       .  A
C1373      C1378   1.406       .  A
C1374      C1375   1.415       .  A
C1375      C1376   1.395       .  A
C1375      H1384   1.077       .  S
C1376      C1377   1.401       .  A
C1376      H1385   1.083       .  S
C1377      C1378   1.402       .  A
C1378      H1386   1.084       .  S
C1387      C1388   1.402       .  A
C1387      C1392   1.402       .  A
C1388      C1389   1.396       .  A
C1388      H1401   1.084       .  S
C1389      C1390   1.415       .  A
C1389      H1402   1.077       .  S
C1390      C1396   1.432       .  A
C1390      C1391   1.423       .  A
C1391      C1393   1.400       .  A
C1391      C1392   1.407       .  A
C1392      H1403   1.084       .  S
C1393      C1394   1.391       .  A
C1393      H1404   1.084       .  S
C1394      C1395   1.400       .  A
C1394      H1405   1.084       .  S
C1395      C1396   1.423       .  A
C1395      C1400   1.408       .  A
C1396      C1397   1.414       .  A
C1397      C1398   1.396       .  A
C1397      H1406   1.077       .  S
C1398      C1399   1.402       .  A
C1398      H1407   1.083       .  S
C1399      C1400   1.403       .  A
C1400      H1408   1.084       .  S
C1409      C1410   1.401       .  A
C1409      C1414   1.403       .  A
C1410      C1411   1.401       .  A
C1410      H1423   1.083       .  S
C1411      C1412   1.416       .  A
C1411      H1424   1.078       .  S
C1412      C1418   1.434       .  A
C1412      C1413   1.423       .  A
C1413      C1415   1.399       .  A
C1413      C1414   1.407       .  A
C1414      H1425   1.085       .  S
C1415      C1416   1.390       .  A
C1415      H1426   1.084       .  S
C1416      C1417   1.400       .  A
C1416      H1427   1.084       .  S
C1417      C1418   1.422       .  A
C1417      C1422   1.406       .  A
C1418      C1419   1.416       .  A
C1419      C1420   1.402       .  A
C1419      H1428   1.078       .  S
C1420      C1421   1.404       .  A
C1420      H1429   1.083       .  S
C1421      C1422   1.405       .  A
C1422      H1430   1.084       .  S
C1431      C1432   1.401       .  A
C1431      C1436   1.404       .  A
C1432      C1433   1.389       .  A
C1432      H1445   1.083       .  S
C1433      C1434   1.412       .  A
C1433      H1446   1.076       .  S
C1434      C1440   1.426       .  A
C1434      C1435   1.423       .  A
C1435      C1437   1.401       .  A
C1435      C1436   1.409       .  A
C1436      H1447   1.084       .  S
C1437      C1438   1.393       .  A
C1437      H1448   1.084       .  S
C1438      C1439   1.401       .  A
C1438      H1449   1.084       .  S
C1439      C1440   1.422       .  A
C1439      C1444   1.407       .  A
C1440      C1441   1.414       .  A
C1441      C1442   1.391       .  A
C1441      H1450   1.076       .  S
C1442      C1443   1.398       .  A
C1442      H1451   1.084       .  S
C1443      C1444   1.403       .  A
C1444      H1452   1.084       .  S
C1453      C1454   1.404       .  A
C1453      C1458   1.400   1_545  A
C1454      C1455   1.392       .  A
C1454      H1467   1.083       .  S
C1455      C1456   1.411       .  A
C1455      H1468   1.077       .  S
C1456      C1462   1.429       .  A
C1456      C1457   1.425   1_545  A
C1457      C1459   1.398       .  A
C1457      C1458   1.406       .  A
C1458      H1469   1.084       .  S
C1459      C1460   1.388       .  A
C1459      H1470   1.084       .  S
C1460      C1461   1.400       .  A
C1460      H1471   1.084       .  S
C1461      C1462   1.419   1_565  A
C1461      C1466   1.400       .  A
C1462      C1463   1.418       .  A
C1463      C1464   1.399       .  A
C1463      H1472   1.077       .  S
C1464      C1465   1.400       .  A
C1464      H1473   1.083       .  S
C1465      C1466   1.404   1_545  A
C1466      H1474   1.084       .  S
C1475      C1476   1.405   1_545  A
C1475      C1480   1.402       .  A
C1476      C1477   1.394       .  A
C1476      H1489   1.083       .  S
C1477      C1478   1.411       .  A
C1477      H1490   1.077       .  S
C1478      C1484   1.432       .  A
C1478      C1479   1.425   1_565  A
C1479      C1481   1.399       .  A
C1479      C1480   1.410       .  A
C1480      H1491   1.084       .  S
C1481      C1482   1.391       .  A
C1481      H1492   1.084       .  S
C1482      C1483   1.401       .  A
C1482      H1493   1.084       .  S
C1483      C1484   1.419   1_545  A
C1483      C1488   1.405       .  A
C1484      C1485   1.418       .  A
C1485      C1486   1.400       .  A
C1485      H1494   1.077       .  S
C1486      C1487   1.401       .  A
C1486      H1495   1.083       .  S
C1487      C1488   1.407   1_565  A
C1488      H1496   1.084       .  S
C1497      C1498   1.401       .  A
C1497      C1502   1.398       .  A
C1498      C1499   1.400       .  A
C1498      H1511   1.083       .  S
C1499      C1500   1.416       .  A
C1499      H1512   1.078       .  S
C1500      C1506   1.430       .  A
C1500      C1501   1.423       .  A
C1501      C1503   1.397       .  A
C1501      C1502   1.398       .  A
C1502      H1513   1.085       .  S
C1503      C1504   1.384       .  A
C1503      H1514   1.084       .  S
C1504      C1505   1.398       .  A
C1504      H1515   1.084       .  S
C1505      C1506   1.422       .  A
C1505      C1510   1.398       .  A
C1506      C1507   1.417       .  A
C1507      C1508   1.401       .  A
C1507      H1516   1.078       .  S
C1508      C1509   1.402       .  A
C1508      H1517   1.083       .  S
C1509      C1510   1.400       .  A
C1510      H1518   1.085       .  S
C1519      C1520   1.402       .  A
C1519      C1524   1.405       .  A
C1520      C1521   1.392       .  A
C1520      H1533   1.083       .  S
C1521      C1522   1.412       .  A
C1521      H1534   1.076       .  S
C1522      C1528   1.430       .  A
C1522      C1523   1.423       .  A
C1523      C1525   1.401       .  A
C1523      C1524   1.411       .  A
C1524      H1535   1.084       .  S
C1525      C1526   1.394       .  A
C1525      H1536   1.084       .  S
C1526      C1527   1.401       .  A
C1526      H1537   1.084       .  S
C1527      C1528   1.423       .  A
C1527      C1532   1.410       .  A
C1528      C1529   1.415       .  A
C1529      C1530   1.393       .  A
C1529      H1538   1.076       .  S
C1530      C1531   1.398       .  A
C1530      H1539   1.084       .  S
C1531      C1532   1.403       .  A
C1532      H1540   1.084       .  S
C1541      C1542   1.400       .  A
C1541      C1546   1.402       .  A
C1542      C1543   1.396       .  A
C1542      H1555   1.083       .  S
C1543      C1544   1.416       .  A
C1543      H1556   1.077       .  S
C1544      C1550   1.428       .  A
C1544      C1545   1.421       .  A
C1545      C1547   1.399       .  A
C1545      C1546   1.400       .  A
C1546      H1557   1.085       .  S
C1547      C1548   1.387       .  A
C1547      H1558   1.084       .  S
C1548      C1549   1.398       .  A
C1548      H1559   1.084       .  S
C1549      C1550   1.423       .  A
C1549      C1554   1.402       .  A
C1550      C1551   1.414       .  A
C1551      C1552   1.395       .  A
C1551      H1560   1.077       .  S
C1552      C1553   1.399       .  A
C1552      H1561   1.083       .  S
C1553      C1554   1.400       .  A
C1554      H1562   1.085       .  S
C1563      C1564   1.402       .  A
C1563      C1568   1.405       .  A
C1564      C1565   1.398       .  A
C1564      H1577   1.083       .  S
C1565      C1566   1.415       .  A
C1565      H1578   1.077       .  S
C1566      C1572   1.432       .  A
C1566      C1567   1.422       .  A
C1567      C1569   1.400       .  A
C1567      C1568   1.406       .  A
C1568      H1579   1.084       .  S
C1569      C1570   1.389       .  A
C1569      H1580   1.084       .  S
C1570      C1571   1.399       .  A
C1570      H1581   1.084       .  S
C1571      C1572   1.423       .  A
C1571      C1576   1.404       .  A
C1572      C1573   1.416       .  A
C1573      C1574   1.398       .  A
C1573      H1582   1.077       .  S
C1574      C1575   1.400       .  A
C1574      H1583   1.083       .  S
C1575      C1576   1.401       .  A
C1576      H1584   1.085       .  S
C1585      C1586   1.401       .  A
C1585      C1590   1.403       .  A
C1586      C1587   1.400       .  A
C1586      H1599   1.083       .  S
C1587      C1588   1.416       .  A
C1587      H1600   1.078       .  S
C1588      C1594   1.431       .  A
C1588      C1589   1.421       .  A
C1589      C1591   1.400       .  A
C1589      C1590   1.405       .  A
C1590      H1601   1.085       .  S
C1591      C1592   1.390       .  A
C1591      H1602   1.084       .  S
C1592      C1593   1.399       .  A
C1592      H1603   1.084       .  S
C1593      C1594   1.422       .  A
C1593      C1598   1.406       .  A
C1594      C1595   1.414       .  A
C1595      C1596   1.398       .  A
C1595      H1604   1.078       .  S
C1596      C1597   1.404       .  A
C1596      H1605   1.083       .  S
C1597      C1598   1.402       .  A
C1598      H1606   1.084       .  S
C1607      C1608   1.401       .  A
C1607      C1612   1.406       .  A
C1608      C1609   1.400       .  A
C1608      H1621   1.083       .  S
C1609      C1610   1.418       .  A
C1609      H1622   1.077       .  S
C1610      C1616   1.431       .  A
C1610      C1611   1.419       .  A
C1611      C1613   1.401       .  A
C1611      C1612   1.403       .  A
C1612      H1623   1.084       .  S
C1613      C1614   1.389       .  A
C1613      H1624   1.084       .  S
C1614      C1615   1.398       .  A
C1614      H1625   1.084       .  S
C1615      C1616   1.425       .  A
C1615      C1620   1.408       .  A
C1616      C1617   1.410       .  A
C1617      C1618   1.392       .  A
C1617      H1626   1.077       .  S
C1618      C1619   1.405       .  A
C1618      H1627   1.083       .  S
C1619      C1620   1.401       .  A
C1620      H1628   1.084       .  S
C1629      C1630   1.400       .  A
C1629      C1634   1.406       .  A
C1630      C1631   1.395       .  A
C1630      H1643   1.083       .  S
C1631      C1632   1.417       .  A
C1631      H1644   1.077       .  S
C1632      C1638   1.429       .  A
C1632      C1633   1.419       .  A
C1633      C1635   1.401       .  A
C1633      C1634   1.404       .  A
C1634      H1645   1.084       .  S
C1635      C1636   1.392       .  A
C1635      H1646   1.084       .  S
C1636      C1637   1.399       .  A
C1636      H1647   1.084       .  S
C1637      C1638   1.424       .  A
C1637      C1642   1.411       .  A
C1638      C1639   1.409       .  A
C1639      C1640   1.390       .  A
C1639      H1648   1.077       .  S
C1640      C1641   1.406       .  A
C1640      H1649   1.083       .  S
C1641      C1642   1.403       .  A
C1642      H1650   1.084       .  S
C1651      C1652   1.401       .  A
C1651      C1656   1.402       .  A
C1652      C1653   1.395       .  A
C1652      H1665   1.083       .  S
C1653      C1654   1.414       .  A
C1653      H1666   1.078       .  S
C1654      C1660   1.426       .  A
C1654      C1655   1.422       .  A
C1655      C1657   1.399       .  A
C1655      C1656   1.402       .  A
C1656      H1667   1.085       .  S
C1657      C1658   1.388       .  A
C1657      H1668   1.084       .  S
C1658      C1659   1.399       .  A
C1658      H1669   1.084       .  S
C1659      C1660   1.421       .  A
C1659      C1664   1.400       .  A
C1660      C1661   1.415       .  A
C1661      C1662   1.397       .  A
C1661      H1670   1.078       .  S
C1662      C1663   1.400       .  A
C1662      H1671   1.083       .  S
C1663      C1664   1.401       .  A
C1664      H1672   1.085       .  S
C1673      C1674   1.401       .  A
C1673      C1678   1.401       .  A
C1674      C1675   1.398       .  A
C1674      H1687   1.083       .  S
C1675      C1676   1.415       .  A
C1675      H1688   1.078       .  S
C1676      C1682   1.429       .  A
C1676      C1677   1.422       .  A
C1677      C1679   1.398       .  A
C1677      C1678   1.401       .  A
C1678      H1689   1.085       .  S
C1679      C1680   1.387       .  A
C1679      H1690   1.084       .  S
C1680      C1681   1.399       .  A
C1680      H1691   1.084       .  S
C1681      C1682   1.421       .  A
C1681      C1686   1.400       .  A
C1682      C1683   1.416       .  A
C1683      C1684   1.398       .  A
C1683      H1692   1.078       .  S
C1684      C1685   1.401       .  A
C1684      H1693   1.083       .  S
C1685      C1686   1.402       .  A
C1686      H1694   1.085       .  S
C1695      C1696   1.401       .  A
C1695      C1700   1.401       .  A
C1696      C1697   1.398       .  A
C1696      H1709   1.083       .  S
C1697      C1698   1.415       .  A
C1697      H1710   1.077       .  S
C1698      C1704   1.431       .  A
C1698      C1699   1.423       .  A
C1699      C1701   1.399       .  A
C1699      C1700   1.404       .  A
C1700      H1711   1.085       .  S
C1701      C1702   1.389       .  A
C1701      H1712   1.084       .  S
C1702      C1703   1.400       .  A
C1702      H1713   1.084       .  S
C1703      C1704   1.421       .  A
C1703      C1708   1.404       .  A
C1704      C1705   1.416       .  A
C1705      C1706   1.399       .  A
C1705      H1714   1.077       .  S
C1706      C1707   1.401       .  A
C1706      H1715   1.083       .  S
C1707      C1708   1.404       .  A
C1708      H1716   1.085       .  S
C1717      C1718   1.403       .  A
C1717      C1722   1.405       .  A
C1718      C1719   1.402       .  A
C1718      H1731   1.083       .  S
C1719      C1720   1.417       .  A
C1719      H1732   1.078       .  S
C1720      C1726   1.432       .  A
C1720      C1721   1.421       .  A
C1721      C1723   1.400       .  A
C1721      C1722   1.403       .  A
C1722      H1733   1.084       .  S
C1723      C1724   1.388       .  A
C1723      H1734   1.084       .  S
C1724      C1725   1.398       .  A
C1724      H1735   1.084       .  S
C1725      C1726   1.424       .  A
C1725      C1730   1.404       .  A
C1726      C1727   1.415       .  A
C1727      C1728   1.398       .  A
C1727      H1736   1.077       .  S
C1728      C1729   1.400       .  A
C1728      H1737   1.083       .  S
C1729      C1730   1.400       .  A
C1730      H1738   1.085       .  S
C1739      C1740   1.397       .  A
C1739      C1744   1.399       .  A
C1740      C1741   1.395       .  A
C1740      H1753   1.084       .  S
C1741      C1742   1.417       .  A
C1741      H1754   1.077       .  S
C1742      C1748   1.429       .  A
C1742      C1743   1.422       .  A
C1743      C1745   1.400       .  A
C1743      C1744   1.404       .  A
C1744      H1755   1.085       .  S
C1745      C1746   1.391       .  A
C1745      H1756   1.084       .  S
C1746      C1747   1.399       .  A
C1746      H1757   1.084       .  S
C1747      C1748   1.424       .  A
C1747      C1752   1.409       .  A
C1748      C1749   1.411       .  A
C1749      C1750   1.392       .  A
C1749      H1758   1.077       .  S
C1750      C1751   1.405       .  A
C1750      H1759   1.083       .  S
C1751      C1752   1.403       .  A
C1752      H1760   1.084       .  S
C1761      C1762   1.402       .  A
C1761      C1766   1.403       .  A
C1762      C1763   1.397       .  A
C1762      H1775   1.083       .  S
C1763      C1764   1.415       .  A
C1763      H1776   1.077       .  S
C1764      C1770   1.433       .  A
C1764      C1765   1.423       .  A
C1765      C1767   1.400       .  A
C1765      C1766   1.409       .  A
C1766      H1777   1.084       .  S
C1767      C1768   1.391       .  A
C1767      H1778   1.084       .  S
C1768      C1769   1.400       .  A
C1768      H1779   1.084       .  S
C1769      C1770   1.422       .  A
C1769      C1774   1.408       .  A
C1770      C1771   1.415       .  A
C1771      C1772   1.397       .  A
C1771      H1780   1.077       .  S
C1772      C1773   1.401       .  A
C1772      H1781   1.083       .  S
C1773      C1774   1.404       .  A
C1774      H1782   1.084       .  S
C1783      C1784   1.400       .  A
C1783      C1788   1.407       .  A
C1784      C1785   1.400       .  A
C1784      H1797   1.083       .  S
C1785      C1786   1.419       .  A
C1785      H1798   1.077       .  S
C1786      C1792   1.431       .  A
C1786      C1787   1.418       .  A
C1787      C1789   1.401       .  A
C1787      C1788   1.401       .  A
C1788      H1799   1.084       .  S
C1789      C1790   1.389       .  A
C1789      H1800   1.084       .  S
C1790      C1791   1.398       .  A
C1790      H1801   1.084       .  S
C1791      C1792   1.425       .  A
C1791      C1796   1.409       .  A
C1792      C1793   1.409       .  A
C1793      C1794   1.392       .  A
C1793      H1802   1.077       .  S
C1794      C1795   1.406       .  A
C1794      H1803   1.083       .  S
C1795      C1796   1.402       .  A
C1796      H1804   1.084       .  S
C1805      C1806   1.404       .  A
C1805      C1810   1.402       .  A
C1806      C1807   1.391       .  A
C1806      H1819   1.083       .  S
C1807      C1808   1.410       .  A
C1807      H1820   1.077       .  S
C1808      C1814   1.429       .  A
C1808      C1809   1.424       .  A
C1809      C1811   1.399       .  A
C1809      C1810   1.407       .  A
C1810      H1821   1.084       .  S
C1811      C1812   1.390       .  A
C1811      H1822   1.084       .  S
C1812      C1813   1.401       .  A
C1812      H1823   1.084       .  S
C1813      C1814   1.419       .  A
C1813      C1818   1.402       .  A
C1814      C1815   1.417       .  A
C1815      C1816   1.397       .  A
C1815      H1824   1.077       .  S
C1816      C1817   1.400       .  A
C1816      H1825   1.083       .  S
C1817      C1818   1.406       .  A
C1818      H1826   1.084       .  S
C1827      C1828   1.401       .  A
C1827      C1832   1.401       .  A
C1828      C1829   1.394       .  A
C1828      H1841   1.084       .  S
C1829      C1830   1.415       .  A
C1829      H1842   1.077       .  S
C1830      C1836   1.430       .  A
C1830      C1831   1.423       .  A
C1831      C1833   1.400       .  A
C1831      C1832   1.407       .  A
C1832      H1843   1.084       .  S
C1833      C1834   1.391       .  A
C1833      H1844   1.084       .  S
C1834      C1835   1.400       .  A
C1834      H1845   1.084       .  S
C1835      C1836   1.423       .  A
C1835      C1840   1.408       .  A
C1836      C1837   1.413       .  A
C1837      C1838   1.394       .  A
C1837      H1846   1.077       .  S
C1838      C1839   1.402       .  A
C1838      H1847   1.084       .  S
C1839      C1840   1.402       .  A
C1840      H1848   1.084       .  S
C1849      C1850   1.398       .  A
C1849      C1854   1.404       .  A
C1850      C1851   1.390       .  A
C1850      H1863   1.084       .  S
C1851      C1852   1.413       .  A
C1851      H1864   1.076       .  S
C1852      C1858   1.428       .  A
C1852      C1853   1.423       .  A
C1853      C1855   1.401       .  A
C1853      C1854   1.411       .  A
C1854      H1865   1.084       .  S
C1855      C1856   1.394       .  A
C1855      H1866   1.084       .  S
C1856      C1857   1.401       .  A
C1856      H1867   1.084       .  S
C1857      C1858   1.422       .  A
C1857      C1862   1.411       .  A
C1858      C1859   1.413       .  A
C1859      C1860   1.390       .  A
C1859      H1868   1.076       .  S
C1860      C1861   1.401       .  A
C1860      H1869   1.083       .  S
C1861      C1862   1.405       .  A
C1862      H1870   1.084       .  S
C1871      C1872   1.400       .  A
C1871      C1876   1.403       .  A
C1872      C1873   1.395       .  A
C1872      H1885   1.084       .  S
C1873      C1874   1.415       .  A
C1873      H1886   1.077       .  S
C1874      C1880   1.431       .  A
C1874      C1875   1.422       .  A
C1875      C1877   1.400       .  A
C1875      C1876   1.409       .  A
C1876      H1887   1.084       .  S
C1877      C1878   1.393       .  A
C1877      H1888   1.084       .  S
C1878      C1879   1.401       .  A
C1878      H1889   1.084       .  S
C1879      C1880   1.423       .  A
C1879      C1884   1.411       .  A
C1880      C1881   1.413       .  A
C1881      C1882   1.394       .  A
C1881      H1890   1.077       .  S
C1882      C1883   1.401       .  A
C1882      H1891   1.084       .  S
C1883      C1884   1.404       .  A
C1884      H1892   1.084       .  S
C1893      C1894   1.403       .  A
C1893      C1898   1.404       .  A
C1894      C1895   1.397       .  A
C1894      H1907   1.083       .  S
C1895      C1896   1.414       .  A
C1895      H1908   1.077       .  S
C1896      C1902   1.432       .  A
C1896      C1897   1.422       .  A
C1897      C1899   1.400       .  A
C1897      C1898   1.409       .  A
C1898      H1909   1.084       .  S
C1899      C1900   1.392       .  A
C1899      H1910   1.084       .  S
C1900      C1901   1.400       .  A
C1900      H1911   1.084       .  S
C1901      C1902   1.423       .  A
C1901      C1906   1.409       .  A
C1902      C1903   1.414       .  A
C1903      C1904   1.395       .  A
C1903      H1912   1.077       .  S
C1904      C1905   1.401       .  A
C1904      H1913   1.084       .  S
C1905      C1906   1.402       .  A
C1906      H1914   1.084       .  S
C1915      C1916   1.398       .  A
C1915      C1920   1.402       .  A
C1916      C1917   1.389       .  A
C1916      H1929   1.084       .  S
C1917      C1918   1.413       .  A
C1917      H1930   1.077       .  S
C1918      C1924   1.424       .  A
C1918      C1919   1.422       .  A
C1919      C1921   1.401       .  A
C1919      C1920   1.407       .  A
C1920      H1931   1.085       .  S
C1921      C1922   1.393       .  A
C1921      H1932   1.084       .  S
C1922      C1923   1.401       .  A
C1922      H1933   1.084       .  S
C1923      C1924   1.421       .  A
C1923      C1928   1.407       .  A
C1924      C1925   1.411       .  A
C1925      C1926   1.388       .  A
C1925      H1934   1.077       .  S
C1926      C1927   1.401       .  A
C1926      H1935   1.083       .  S
C1927      C1928   1.405       .  A
C1928      H1936   1.084       .  S
C1937      C1938   1.402       .  A
C1937      C1942   1.404       .  A
C1938      C1939   1.398       .  A
C1938      H1951   1.083       .  S
C1939      C1940   1.416       .  A
C1939      H1952   1.077       .  S
C1940      C1946   1.433       .  A
C1940      C1941   1.422       .  A
C1941      C1943   1.401       .  A
C1941      C1942   1.409       .  A
C1942      H1953   1.084       .  S
C1943      C1944   1.392       .  A
C1943      H1954   1.084       .  S
C1944      C1945   1.400       .  A
C1944      H1955   1.084       .  S
C1945      C1946   1.424       .  A
C1945      C1950   1.411       .  A
C1946      C1947   1.414       .  A
C1947      C1948   1.395       .  A
C1947      H1956   1.077       .  S
C1948      C1949   1.402       .  A
C1948      H1957   1.083       .  S
C1949      C1950   1.404       .  A
C1950      H1958   1.084       .  S
C1959      C1960   1.402       .  A
C1959      C1964   1.403       .  A
C1960      C1961   1.398       .  A
C1960      H1973   1.083       .  S
C1961      C1962   1.415       .  A
C1961      H1974   1.078       .  S
C1962      C1968   1.430       .  A
C1962      C1963   1.422       .  A
C1963      C1965   1.399       .  A
C1963      C1964   1.405       .  A
C1964      H1975   1.085       .  S
C1965      C1966   1.390       .  A
C1965      H1976   1.084       .  S
C1966      C1967   1.399       .  A
C1966      H1977   1.084       .  S
C1967      C1968   1.422       .  A
C1967      C1972   1.404       .  A
C1968      C1969   1.415       .  A
C1969      C1970   1.398       .  A
C1969      H1978   1.078       .  S
C1970      C1971   1.402       .  A
C1970      H1979   1.083       .  S
C1971      C1972   1.403       .  A
C1972      H1980   1.085       .  S
C1981      C1982   1.403       .  A
C1981      C1986   1.401   1_665  A
C1982      C1983   1.395       .  A
C1982      H1995   1.083       .  S
C1983      C1984   1.412       .  A
C1983      H1996   1.077       .  S
C1984      C1990   1.430       .  A
C1984      C1985   1.424   1_665  A
C1985      C1987   1.399       .  A
C1985      C1986   1.406       .  A
C1986      H1997   1.084       .  S
C1987      C1988   1.389       .  A
C1987      H1998   1.084       .  S
C1988      C1989   1.400       .  A
C1988      H1999   1.084       .  S
C1989      C1990   1.420   1_445  A
C1989      C1994   1.401       .  A
C1990      C1991   1.417       .  A
C1991      C1992   1.398       .  A
C1991      H2000   1.077       .  S
C1992      C1993   1.399   1_655  A
C1992      H2001   1.083       .  S
C1993      C1994   1.404   1_565  A
C1994      H2002   1.085       .  S
C2003      C2004   1.406       .  A
C2003      C2008   1.402   1_645  A
C2004      C2005   1.395       .  A
C2004      H2017   1.083       .  S
C2005      C2006   1.411   1_655  A
C2005      H2018   1.077       .  S
C2006      C2012   1.433   1_556  A
C2006      C2007   1.425   1_545  A
C2007      C2009   1.398       .  A
C2007      C2008   1.409       .  A
C2008      H2019   1.084       .  S
C2009      C2010   1.389   1_556  A
C2009      H2020   1.084       .  S
C2010      C2011   1.400       .  A
C2010      H2021   1.084       .  S
C2011      C2012   1.419   1_565  A
C2011      C2016   1.402       .  A
C2012      C2013   1.419   1_455  A
C2013      C2014   1.402       .  A
C2013      H2022   1.077       .  S
C2014      C2015   1.402   1_655  A
C2014      H2023   1.083       .  S
C2015      C2016   1.406   1_545  A
C2016      H2024   1.084       .  S
C2025      C2026   1.400       .  A
C2025      C2030   1.402       .  A
C2026      C2027   1.393       .  A
C2026      H2039   1.084       .  S
C2027      C2028   1.414       .  A
C2027      H2040   1.077       .  S
C2028      C2034   1.430       .  A
C2028      C2029   1.423       .  A
C2029      C2031   1.400       .  A
C2029      C2030   1.408       .  A
C2030      H2041   1.084       .  S
C2031      C2032   1.393       .  A
C2031      H2042   1.084       .  S
C2032      C2033   1.401       .  A
C2032      H2043   1.084       .  S
C2033      C2034   1.423       .  A
C2033      C2038   1.411       .  A
C2034      C2035   1.413       .  A
C2035      C2036   1.393       .  A
C2035      H2044   1.077       .  S
C2036      C2037   1.402       .  A
C2036      H2045   1.083       .  S
C2037      C2038   1.404       .  A
C2038      H2046   1.084       .  S
C2047      C2048   1.401       .  A
C2047      C2052   1.407       .  A
C2048      C2049   1.397       .  A
C2048      H2061   1.083       .  S
C2049      C2050   1.414       .  A
C2049      H2062   1.077       .  S
C2050      C2056   1.434       .  A
C2050      C2051   1.423       .  A
C2051      C2053   1.402       .  A
C2051      C2052   1.414       .  A
C2052      H2063   1.084       .  S
C2053      C2054   1.395       .  A
C2053      H2064   1.084       .  S
C2054      C2055   1.401       .  A
C2054      H2065   1.084       .  S
C2055      C2056   1.423       .  A
C2055      C2060   1.414       .  A
C2056      C2057   1.414       .  A
C2057      C2058   1.396       .  A
C2057      H2066   1.077       .  S
C2058      C2059   1.403       .  A
C2058      H2067   1.083       .  S
C2059      C2060   1.406       .  A
C2060      H2068   1.084       .  S
C2069      C2070   1.401       .  A
C2069      C2074   1.403       .  A
C2070      C2071   1.398       .  A
C2070      H2083   1.083       .  S
C2071      C2072   1.415       .  A
C2071      H2084   1.078       .  S
C2072      C2078   1.431       .  A
C2072      C2073   1.422       .  A
C2073      C2075   1.400       .  A
C2073      C2074   1.406       .  A
C2074      H2085   1.085       .  S
C2075      C2076   1.390       .  A
C2075      H2086   1.084       .  S
C2076      C2077   1.400       .  A
C2076      H2087   1.084       .  S
C2077      C2078   1.421       .  A
C2077      C2082   1.406       .  A
C2078      C2079   1.415       .  A
C2079      C2080   1.399       .  A
C2079      H2088   1.078       .  S
C2080      C2081   1.403       .  A
C2080      H2089   1.083       .  S
C2081      C2082   1.405       .  A
C2082      H2090   1.084       .  S
C2091      C2092   1.400       .  A
C2091      C2096   1.403       .  A
C2092      C2093   1.394       .  A
C2092      H2105   1.084       .  S
C2093      C2094   1.415       .  A
C2093      H2106   1.077       .  S
C2094      C2100   1.429       .  A
C2094      C2095   1.422       .  A
C2095      C2097   1.400       .  A
C2095      C2096   1.407       .  A
C2096      H2107   1.085       .  S
C2097      C2098   1.392       .  A
C2097      H2108   1.084       .  S
C2098      C2099   1.400       .  A
C2098      H2109   1.084       .  S
C2099      C2100   1.423       .  A
C2099      C2104   1.408       .  A
C2100      C2101   1.413       .  A
C2101      C2102   1.393       .  A
C2101      H2110   1.077       .  S
C2102      C2103   1.401       .  A
C2102      H2111   1.083       .  S
C2103      C2104   1.404       .  A
C2104      H2112   1.084       .  S
