geometry optimzed in LAMMPS
_audit_creation_date              2020-11-30 
_audit_creation_method            'lammps2cif' 
_symmetry_space_group_name_H-M    'P1' 
_symmetry_Int_Tables_number       1 
_symmetry_cell_setting            triclinic 
loop_ 
_symmetry_equiv_pos_as_xyz 
  x,y,z 
_cell_length_a                    37.86833487 
_cell_length_b                    37.652213659459555 
_cell_length_c                    75.38702014305842 
_cell_angle_alpha                 90.86267832631474 
_cell_angle_beta                  90.7788038675849 
_cell_angle_gamma                 120.85117692710793 
loop_ 
_atom_site_label 
_atom_site_type_symbol 
_atom_site_fract_x 
_atom_site_fract_y 
_atom_site_fract_z 
_atom_site_charge 
C1          C  0.33363006  0.17405327  0.54147541     0.46200
H2          H  0.33281424  0.17394419  0.52674247    -0.02900
C3          C  0.33571059  0.17392211  0.57587046     0.46200
H4          H  0.33711119  0.17429228  0.59060138    -0.02900
C5          C  0.37751347  0.19898447  0.54970955    -0.16600
C6          C  0.31002358  0.19292811  0.55015065    -0.16300
C7          C  0.31502453  0.13028851  0.54910597    -0.16700
C8          C  0.37814100  0.19883708  0.56788126    -0.16700
C9          C  0.31089006  0.19234341  0.56840057    -0.16200
C10         C  0.31656957  0.13060835  0.56732922    -0.16500
C11         C  0.16499255  0.33588636  0.45782793     0.46200
H12         H  0.16358495  0.33482040  0.44307799    -0.02900
C13         C  0.16760430  0.33778577  0.49226620     0.46200
H14         H  0.16867153  0.33879781  0.50700440    -0.02900
C15         C  0.18984635  0.31797324  0.46567572    -0.16600
C16         C  0.18447980  0.37960109  0.46592710    -0.16300
C17         C  0.12266894  0.31155614  0.46596300    -0.16700
C18         C  0.19105024  0.31845380  0.48393003    -0.16700
C19         C  0.18643569  0.38095321  0.48413443    -0.16200
C20         C  0.12361098  0.31267765  0.48416593    -0.16500
O21         O  0.08910870  0.24266948  0.69765200    -0.80200
O22         O  0.18829938  0.38855224  0.64938703    -0.64900
O23         O  0.16128852  0.31032522  0.68564209    -1.11500
C24         C  0.12398028  0.39752333  0.71578838     1.06700
O25         O  0.22507518  0.43918018  0.66897387    -0.78100
O26         O  0.22316230  0.42849787  0.70469071    -0.65700
Ni27       Ni  0.13037452  0.25244129  0.68057877     1.34900
C28         C  0.22031530  0.40010883  0.71450897     0.85400
O29         O  0.19519680  0.32135944  0.65183567    -0.78600
O30         O  0.16991588  0.25825533  0.66346777    -0.88900
C31         C  0.21503855  0.42599539  0.65296139     0.85000
O32         O  0.09479426  0.25159171  0.66219537    -0.67100
O33         O  0.14991976  0.42605542  0.70591324    -0.86400
C34         C  0.09370006  0.27959484  0.65349954     0.85800
C35         C  0.19197257  0.28591669  0.65240984     1.07400
H36         H  0.12763060  0.36877261  0.67711467     0.39200
O37         O  0.15292687  0.37267298  0.68226826    -1.09000
O38         O  0.18978568  0.36331322  0.71389370    -0.65700
Ni39       Ni  0.13833347  0.33413703  0.70075933     1.26300
O40         O  0.12118564  0.31766655  0.65496350    -0.65900
O41         O  0.11614154  0.36019747  0.71521398    -0.78200
C42         C  0.09768554  0.25445727  0.71381703     0.85200
O43         O  0.12234307  0.29219812  0.71797783    -0.65400
Ni44       Ni  0.18658050  0.43032817  0.68751351     1.27400
Ni45       Ni  0.17416555  0.34780338  0.66686202     1.26100
H46         H  0.18712428  0.31579641  0.69084946     0.39800
C47         C  0.47694156  0.00054150  0.79101762     0.46200
H48         H  0.47556915  0.99904006  0.77628272    -0.02900
C49         C  0.47903614  0.00258028  0.82548323     0.46200
H50         H  0.47989580  0.00357586  0.84022803    -0.02900
C51         C  0.50065857  0.48311892  0.79942441    -0.16600
C52         C  0.49697814  0.04451171  0.79893848    -0.16300
C53         C  0.43405334  0.47814083  0.79952534    -0.16700
C54         C  0.50103958  0.48229033  0.81763554    -0.16700
C55         C  0.49856529  0.04587919  0.81723194    -0.16200
C56         C  0.43414969  0.47788674  0.81772971    -0.16500
C57         C  0.14496212  0.34282324  0.87556152     0.46200
H58         H  0.14328758  0.34107015  0.86082773    -0.02900
C59         C  0.14905059  0.34654332  0.91000512     0.46200
H60         H  0.15126984  0.34895939  0.92472352    -0.02900
C61         C  0.12553972  0.29986541  0.88422639    -0.16600
C62         C  0.18943406  0.36758395  0.88332325    -0.16300
C63         C  0.12261085  0.36355760  0.88386636    -0.16700
C64         C  0.12812779  0.30223726  0.90247715    -0.16700
C65         C  0.19098819  0.36913206  0.90150916    -0.16200
C66         C  0.12465823  0.36487857  0.90214047    -0.16500
C67         C  0.35786475  0.16358207  0.15742775     0.46200
H68         H  0.35790664  0.16256743  0.17214884    -0.02900
C69         C  0.35883621  0.16733507  0.12305481     0.46200
H70         H  0.35843734  0.16895480  0.10838212    -0.02900
C71         C  0.37789874  0.14111318  0.14844309    -0.16600
C72         C  0.31458864  0.14408213  0.14876000    -0.16300
C73         C  0.38168354  0.20820416  0.15038852    -0.16700
C74         C  0.37812726  0.14303574  0.13017001    -0.16700
C75         C  0.31554518  0.14635551  0.13060800    -0.16200
C76         C  0.38242099  0.20987126  0.13228670    -0.16500
C77         C  0.02806293  0.50590237  0.20929745     0.46200
H78         H  0.02906608  0.50728067  0.19459325    -0.02900
C79         C  0.02533888  0.50138269  0.24365455     0.46200
H80         H  0.02310900  0.49916639  0.25829378    -0.02900
C81         C  0.07092620  0.02670792  0.21570504    -0.16600
C82         C  0.00755237  0.03025750  0.21669303    -0.16300
C83         C  0.00745263  0.46120783  0.21603553    -0.16700
C84         C  0.07060574  0.02392409  0.23386897    -0.16700
C85         C  0.00822744  0.02809044  0.23498789    -0.16200
C86         C  0.00669293  0.45927477  0.23413704    -0.16500
O87         O  0.28078943  0.07444842  0.36537959    -0.80200
O88         O  0.37351999  0.21657446  0.31422139    -0.64900
O89         O  0.35073926  0.14289214  0.35197898    -1.11500
C90         C  0.30974930  0.22923266  0.38026292     1.06700
O91         O  0.40874387  0.26966574  0.33286746    -0.78100
O92         O  0.40907970  0.26288581  0.36863255    -0.65700
Ni93       Ni  0.32166688  0.08456009  0.34796386     1.34900
C94         C  0.40773725  0.23596991  0.37897276     0.85400
O95         O  0.38504067  0.15283820  0.31832356    -0.78600
O96         O  0.36089563  0.09043706  0.33049557    -0.88900
C97         C  0.39805317  0.25480312  0.31716313     0.85000
O98         O  0.28387226  0.07994123  0.32978195    -0.67100
O99         O  0.33433570  0.25707217  0.36980789    -0.86400
C100        C  0.28278312  0.10630316  0.31988996     0.85800
C101        C  0.38263898  0.11788694  0.31925818     1.07400
H102        H  0.31292055  0.19689930  0.34179728     0.39200
O103        O  0.33875307  0.20264678  0.34710342    -1.09000
O104        O  0.37807250  0.19879058  0.37900648    -0.65700
Ni105      Ni  0.32643606  0.16655653  0.36638166     1.26300
O106        O  0.30974528  0.14460112  0.32055167    -0.65900
O107        O  0.30303447  0.19233479  0.38026091    -0.78200
C108        C  0.28838544  0.08909316  0.38119305     0.85200
O109        O  0.31283498  0.12725224  0.38448191    -0.65400
Ni110      Ni  0.37060917  0.26100893  0.35139503     1.27400
Ni111      Ni  0.36191961  0.17827642  0.33251205     1.26100
H112        H  0.37698279  0.14985631  0.35725547     0.39800
O113        O  0.03808001  0.10717730  0.00387306    -0.80200
O114        O  0.49014237  0.45752747  0.05101058    -0.64900
O115        O  0.03749433  0.03625477  0.01510361    -1.11500
C116        C  0.41024542  0.45472152  0.98417673     1.06700
O117        O  0.45321444  0.40140424  0.03361284    -0.78100
O118        O  0.48403426  0.42482734  0.00062967    -0.65700
Ni119      Ni  0.06817947  0.09426802  0.02057296     1.34900
C120        C  0.00106685  0.44883937  0.98809149     0.85400
O121        O  0.06392553  0.02243095  0.04802836    -0.78600
O122        O  0.10142124  0.08673303  0.03762358    -0.88900
C123        C  0.46849511  0.41866348  0.04866857     0.85000
O124        O  0.03416406  0.09549024  0.03857950    -0.67100
O125        O  0.41392313  0.42555573  0.99052513    -0.86400
C126        C  0.50019222  0.05191161  0.04624514     0.85800
C127        C  0.09645582  0.05806152  0.04789273     1.07400
H128        H  0.44406083  0.47926053  0.02611679     0.39200
O129        O  0.46333500  0.47490348  0.01959398    -1.09000
O130        O  0.00113407  0.48233754  0.98538776    -0.65700
Ni131      Ni  0.48590421  0.00853931  0.00125859     1.26300
O132        O  0.49972612  0.01808996  0.04814914    -0.65900
O133        O  0.43333620  0.49224406  0.98911357    -0.78200
C134        C  0.02968898  0.09446273  0.98786998     0.85200
O135        O  0.01188716  0.05629928  0.98383204    -0.65400
Ni136      Ni  0.43671054  0.41779131  0.01233483     1.27400
Ni137      Ni  0.01527654  0.49499164  0.03176900     1.26100
H138        H  0.05612294  0.02993932  0.00912139     0.39800
C139        C  0.21594681  0.09187797  0.28324524     0.21000
C140        C  0.20288850  0.10321573  0.26799711    -0.38800
C141        C  0.16514498  0.07271764  0.26047528     0.20000
C142        C  0.14225114  0.03386020  0.26761414     0.22700
C143        C  0.15556949  0.02228960  0.28274698    -0.39300
C144        C  0.19334629  0.05288350  0.29029098     0.21500
N145        N  0.25008203  0.11580474  0.29311277    -0.32600
C146        C  0.24943878  0.09193565  0.30650898    -0.10200
C147        C  0.21460062  0.05232518  0.30518364    -0.29000
N148        N  0.10640262  0.01138713  0.25863519    -0.45600
C149        C  0.10658931  0.03597977  0.24565188    -0.04900
C150        C  0.14271829  0.07452298  0.24633858    -0.22200
H151        H  0.22042486  0.13384251  0.26261580     0.19600
H152        H  0.13746472  0.99204487  0.28842341     0.18400
H153        H  0.20599278  0.02674158  0.31393052     0.14700
H154        H  0.15066784  0.10074858  0.23808809     0.14500
H155        H  0.27266505  0.14644167  0.29077539     0.32700
H156        H  0.07724138  0.50209026  0.27141979     0.35400
C157        C  0.48111252  0.37723443  0.26093863     0.21000
C158        C  0.48969950  0.35471724  0.27311911    -0.38800
C159        C  0.45658737  0.32716102  0.28337050     0.20000
C160        C  0.41790495  0.32238643  0.28155283     0.22700
C161        C  0.40957113  0.34553209  0.26965757    -0.39300
C162        C  0.44265688  0.37305535  0.25942502     0.21500
N163        N  0.01462649  0.41720274  0.25703226    -0.32600
C164        C  0.48605217  0.42145981  0.24200691    -0.10200
C165        C  0.44552285  0.40159001  0.24748204    -0.29000
N166        N  0.39187430  0.29480406  0.29300512    -0.45600
C167        C  0.41429932  0.28239995  0.30227386    -0.04900
C168        C  0.45480455  0.30187150  0.29677208    -0.22200
H169        H  0.02806420  0.38324810  0.28698263     0.19600
H170        H  0.37970799  0.34275162  0.26863605     0.18400
H171        H  0.42211131  0.40881068  0.24400924     0.14700
H172        H  0.47960641  0.29849648  0.30206839     0.14500
H173        H  0.04532000  0.43807810  0.26048066     0.32700
H174        H  0.36114394  0.28592301  0.29482978     0.35400
C175        C  0.43673492  0.10631527  0.28310503     0.21000
C176        C  0.45278537  0.11133524  0.26592529    -0.38800
C177        C  0.46841462  0.08563056  0.26135737     0.20000
C178        C  0.46814937  0.05774129  0.27310684     0.22700
C179        C  0.45249397  0.05292327  0.29014736    -0.39300
C180        C  0.43659345  0.07795760  0.29461030     0.21500
N181        N  0.41838190  0.12529271  0.29055508    -0.32600
C182        C  0.40625744  0.10827965  0.30675160    -0.10200
C183        C  0.41716579  0.07875268  0.30970254    -0.29000
N184        N  0.48271147  0.03561022  0.26565300    -0.45600
C185        C  0.49188235  0.04822696  0.24870692    -0.04900
C186        C  0.48440141  0.08057576  0.24570503    -0.22200
H187        H  0.45220849  0.13279120  0.25670061     0.19600
H188        H  0.45172452  0.03038132  0.29912732     0.18400
H189        H  0.41104321  0.05986211  0.32124523     0.14700
H190        H  0.48967032  0.09809110  0.23379867     0.14500
H191        H  0.41325412  0.14737400  0.28480180     0.32700
H192        H  0.97260782  0.99935588  0.26837276     0.35400
C193        C  0.41734560  0.30533257  0.10979730     0.21000
C194        C  0.41808861  0.34158417  0.10474595    -0.38800
C195        C  0.43799365  0.35881119  0.08876012     0.20000
C196        C  0.45498167  0.34070142  0.07854079     0.22700
C197        C  0.45497092  0.30525328  0.08375737    -0.39300
C198        C  0.43576119  0.28856859  0.09973205     0.21500
N199        N  0.39755620  0.28069366  0.12347359    -0.32600
C200        C  0.40358499  0.24818015  0.12189277    -0.10200
C201        C  0.42793338  0.25272450  0.10749416    -0.29000
N202        N  0.46872349  0.36037862  0.06323729    -0.45600
C203        C  0.46138761  0.39190961  0.06376769    -0.04900
C204        C  0.44245945  0.39227037  0.07950033    -0.22200
H205        H  0.40325359  0.35464786  0.11236811     0.19600
H206        H  0.46769124  0.29078624  0.07562290     0.18400
H207        H  0.43805937  0.23228707  0.10296554     0.14700
H208        H  0.43147862  0.41277322  0.08317433     0.14500
H209        H  0.37925224  0.28449722  0.13264571     0.32700
H210        H  0.00222099  0.40645950  0.07655435     0.35400
C211        C  0.22261364  0.09285077  0.10439856     0.21000
C212        C  0.18413077  0.05990098  0.09838617    -0.38800
C213        C  0.16764292  0.06738911  0.08304004     0.20000
C214        C  0.18824043  0.10469350  0.07444665     0.22700
C215        C  0.22649629  0.13729071  0.08037170    -0.39300
C216        C  0.24271618  0.12992569  0.09562359     0.21500
N217        N  0.24525068  0.09397893  0.11854494    -0.32600
C218        C  0.27972224  0.13207203  0.11854905    -0.10200
C219        C  0.27921115  0.15519681  0.10449082    -0.29000
N220        N  0.16593214  0.10508907  0.06065360    -0.45600
C221        C  0.13053158  0.06794061  0.06037238    -0.04900
C222        C  0.13041642  0.04325249  0.07406646    -0.22200
H223        H  0.16810744  0.03090406  0.10521783     0.19600
H224        H  0.24234135  0.16647028  0.07366048     0.18400
H225        H  0.30279421  0.18620374  0.10108419     0.14700
H226        H  0.10594278  0.01258586  0.07736701     0.14500
H227        H  0.23833679  0.07013191  0.12729291     0.32700
H228        H  0.17391038  0.12976622  0.05224109     0.35400
C229        C  0.42297956  0.11924200  0.09365872     0.21000
C230        C  0.44197634  0.12650968  0.07724889    -0.38800
C231        C  0.45321548  0.09812438  0.07185882     0.20000
C232        C  0.44575084  0.06463349  0.08192559     0.22700
C233        C  0.42659437  0.05736497  0.09847403    -0.39300
C234        C  0.41568208  0.08628795  0.10399991     0.21500
N235        N  0.41020630  0.14240897  0.10162952    -0.32600
C236        C  0.39538797  0.12530680  0.11751646    -0.10200
C237        C  0.39754408  0.08944528  0.11933545    -0.29000
N238        N  0.46051632  0.04289329  0.07387888    -0.45600
C239        C  0.47771335  0.06312828  0.05872953    -0.04900
C240        C  0.47360561  0.09761103  0.05703591    -0.22200
H241        H  0.44813378  0.15280745  0.06937025     0.19600
H242        H  0.42116759  0.03156463  0.10652835     0.18400
H243        H  0.38701523  0.06831794  0.13023239     0.14700
H244        H  0.00966919  0.14593798  0.05348781     0.14500
H245        H  0.41148873  0.16823360  0.09621829     0.32700
H246        H  0.45992883  0.01666506  0.07860707     0.35400
C247        C  0.47251862  0.07654735  0.18635206     0.21000
C248        C  0.47618258  0.10136783  0.17199928    -0.38800
C249        C  0.44253612  0.10643991  0.16871330     0.20000
C250        C  0.40768131  0.08806444  0.17887767     0.22700
C251        C  0.40384711  0.06291619  0.19321614    -0.39300
C252        C  0.43770981  0.05798769  0.19655950     0.21500
N253        N  0.00262766  0.07118542  0.19167378    -0.32600
C254        C  0.48457555  0.04488491  0.20693568    -0.10200
C255        C  0.44473160  0.03695896  0.20966690    -0.29000
N256        N  0.38030788  0.09824790  0.17306665    -0.45600
C257        C  0.39769653  0.12277024  0.15896348    -0.04900
C258        C  0.43676501  0.12903404  0.15604245    -0.22200
H259        H  0.00421715  0.11874656  0.16298909     0.19600
H260        H  0.37678822  0.04870271  0.20129568     0.18400
H261        H  0.42405833  0.01885894  0.22001862     0.14700
H262        H  0.45812096  0.14770751  0.14599801     0.14500
H263        H  0.03016640  0.07861741  0.18563778     0.32700
H264        H  0.35142955  0.08875522  0.17822893     0.35400
C265        C  0.23165725  0.09264542  0.17907324     0.21000
C266        C  0.21022436  0.06723833  0.19325124    -0.38800
C267        C  0.17038421  0.06005789  0.19571951     0.20000
C268        C  0.15317308  0.07690608  0.18493616     0.22700
C269        C  0.17455543  0.10219099  0.17071092    -0.39300
C270        C  0.21435334  0.10925895  0.16819954     0.21500
N271        N  0.26972720  0.10375159  0.17381900    -0.32600
C272        C  0.27653661  0.12699636  0.15928012    -0.10200
C273        C  0.24281368  0.13155485  0.15553720    -0.29000
N274        N  0.11532227  0.06625747  0.19036216    -0.45600
C275        C  0.10851777  0.04293816  0.20488033    -0.04900
C276        C  0.14197666  0.03777803  0.20838461    -0.22200
H277        H  0.22362905  0.05413890  0.20177765     0.19600
H278        H  0.16120067  0.11539716  0.16222033     0.18400
H279        H  0.23940324  0.14869680  0.14493235     0.14700
H280        H  0.14557759  0.52312363  0.22216905     0.14500
H281        H  0.28943131  0.09510822  0.17948812     0.32700
H282        H  0.09582723  0.07536734  0.18486131     0.35400
C283        C  0.44566817  0.30851407  0.17014206     0.21000
C284        C  0.48094455  0.34802044  0.17218798    -0.38800
C285        C  0.47746704  0.37550278  0.18375911     0.20000
C286        C  0.44143450  0.36441743  0.19248104     0.22700
C287        C  0.40606530  0.32502474  0.19032899    -0.39300
C288        C  0.40970175  0.29739434  0.17892439     0.21500
N289        N  0.44092300  0.27714935  0.15969045    -0.32600
C290        C  0.40173322  0.24583010  0.16184401    -0.10200
C291        C  0.38128192  0.25710205  0.17382046    -0.29000
N292        N  0.44669623  0.39506709  0.20353277    -0.45600
C293        C  0.48643206  0.42566389  0.20202578    -0.04900
C294        C  0.99846947  0.39176314  0.20636498    -0.22200
H295        H  0.98110416  0.30904251  0.19902439     0.19600
H296        H  0.37802529  0.31633338  0.19726232     0.18400
H297        H  0.34934264  0.23912119  0.17746865     0.14700
H298        H  0.01985159  0.39064079  0.21568462     0.14500
H299        H  0.46257126  0.27742796  0.15116098     0.32700
H300        H  0.42484990  0.39471325  0.21193263     0.35400
C301        C  0.27900109  0.42258781  0.93055096     0.21000
C302        C  0.30805992  0.45487198  0.94175207    -0.38800
C303        C  0.33425620  0.44608690  0.95162503     0.20000
C304        C  0.33136598  0.40794131  0.95047647     0.22700
C305        C  0.30270542  0.37589621  0.93913879    -0.39300
C306        C  0.27679931  0.38476945  0.92918830     0.21500
N307        N  0.24924682  0.42228257  0.92051230    -0.32600
C308        C  0.22865076  0.38432905  0.91250350    -0.10200
C309        C  0.24467165  0.35994652  0.91762292    -0.29000
N310        N  0.35818597  0.40651921  0.96181306    -0.45600
C311        C  0.37859016  0.44405504  0.97021389    -0.04900
C312        C  0.36473984  0.46978458  0.96414144    -0.22200
H313        H  0.30961407  0.48432677  0.94294481     0.19600
H314        H  0.30023473  0.34596724  0.93838398     0.18400
H315        H  0.23330413  0.32793513  0.91388483     0.14700
H316        H  0.37483436  0.50109722  0.96860321     0.14500
H317        H  0.24274767  0.44598904  0.91942339     0.32700
H318        H  0.36211573  0.38135305  0.96382720     0.35400
C319        C  0.07861617  0.18251955  0.96089184     0.21000
C320        C  0.10974494  0.22223182  0.95654998    -0.38800
C321        C  0.10698319  0.23439128  0.93944102     0.20000
C322        C  0.07522161  0.20945251  0.92759768     0.22700
C323        C  0.04429061  0.16915493  0.93184804    -0.39300
C324        C  0.04754272  0.15649275  0.94893949     0.21500
N325        N  0.07487069  0.16390398  0.97629679    -0.32600
C326        C  0.04181754  0.12530578  0.97411330    -0.10200
C327        C  0.02380472  0.11926573  0.95721253    -0.29000
N328        N  0.07865322  0.22966923  0.91254760    -0.45600
C329        C  0.11342063  0.26735544  0.91480917    -0.04900
C330        C  0.13179504  0.27112800  0.93141460    -0.22200
H331        H  0.13429638  0.24227021  0.96585050     0.19600
H332        H  0.01966250  0.14920896  0.92256902     0.18400
H333        H  0.99728717  0.09148540  0.95173704     0.14700
H334        H  0.15927599  0.29760334  0.93709712     0.14500
H335        H  0.09449268  0.17624595  0.98744934     0.32700
H336        H  0.05763013  0.21905242  0.90185565     0.35400
C337        C  0.05618801  0.43734096  0.95242148     0.21000
C338        C  0.07802050  0.44749907  0.93652933    -0.38800
C339        C  0.08555840  0.41732744  0.92946498     0.20000
C340        C  0.07235564  0.38011226  0.93770789     0.22700
C341        C  0.05078824  0.37007317  0.95357568    -0.39300
C342        C  0.04321593  0.40009770  0.96059475     0.21500
N343        N  0.04391116  0.45995748  0.96150478    -0.32600
C344        C  0.02296816  0.43692211  0.97553579    -0.10200
C345        C  0.02203293  0.39941478  0.97543434    -0.29000
N346        N  0.08352081  0.35681107  0.92858461    -0.45600
C347        C  0.10385783  0.37898029  0.91434100    -0.04900
C348        C  0.10607355  0.41717627  0.91443026    -0.22200
H349        H  0.08812983  0.47657755  0.93009951     0.19600
H350        H  0.04044474  0.34086532  0.95993281     0.18400
H351        H  0.00677402  0.37446772  0.98463840     0.14700
H352        H  0.12148102  0.44176917  0.90508145     0.14500
H353        H  0.04859776  0.48884372  0.95811516     0.32700
H354        H  0.07807317  0.32762840  0.93195996     0.35400
C355        C  0.03055060  0.43276424  0.84702357     0.21000
C356        C  0.02704956  0.40886385  0.86175504    -0.38800
C357        C  0.05786466  0.39891153  0.86383217     0.20000
C358        C  0.08964229  0.41154253  0.85208655     0.22700
C359        C  0.09308552  0.43535738  0.83729660    -0.39300
C360        C  0.06235112  0.44551994  0.83528262     0.21500
N361        N  0.00523521  0.44630436  0.84216083    -0.32600
C362        C  0.02060241  0.46750330  0.82707273    -0.10200
C363        C  0.05669623  0.46820433  0.82255091    -0.29000
N364        N  0.11576585  0.39932381  0.85741553    -0.45600
C365        C  0.10096816  0.37939860  0.87284502    -0.04900
C366        C  0.06438992  0.37786876  0.87705203    -0.22200
H367        H  0.00242080  0.39917382  0.87105808     0.19600
H368        H  0.11805232  0.44556379  0.82813521     0.18400
H369        H  0.07805111  0.98786547  0.81401000     0.14700
H370        H  0.04534779  0.36386074  0.88839687     0.14500
H371        H  0.47464265  0.43096594  0.84747292     0.32700
H372        H  0.14290961  0.40559542  0.85131137     0.35400
C373        C  0.06797837  0.21259630  0.85454026     0.21000
C374        C  0.03954649  0.18899994  0.84086445    -0.38800
C375        C  0.03286048  0.14906910  0.83794168     0.20000
C376        C  0.05273655  0.13367259  0.84794594     0.22700
C377        C  0.08101329  0.15719083  0.86167591    -0.39300
C378        C  0.08788440  0.19721338  0.86452826     0.21500
N379        N  0.07973598  0.25141626  0.85994845    -0.32600
C380        C  0.10692904  0.26064871  0.87362163    -0.10200
C381        C  0.11320177  0.22777564  0.87670666    -0.29000
N382        N  0.04193537  0.09533984  0.84219360    -0.45600
C383        C  0.01556559  0.08656789  0.82823730    -0.04900
C384        C  0.00859816  0.11904302  0.82537639    -0.22200
H385        H  0.02408390  0.20098951  0.83295985     0.19600
H386        H  0.09676253  0.14533567  0.86946896     0.18400
H387        H  0.13307578  0.22621444  0.88672308     0.14700
H388        H  0.48785136  0.11787024  0.81651774     0.14500
H389        H  0.06913450  0.27011889  0.85497752     0.32700
H390        H  0.05281297  0.07678558  0.84706594     0.35400
C391        C  0.27024594  0.39387585  0.85244091     0.21000
C392        C  0.29009403  0.38793938  0.83808866    -0.38800
C393        C  0.33178033  0.41831732  0.83631280     0.20000
C394        C  0.35225537  0.45197118  0.84792455     0.22700
C395        C  0.33240100  0.45795925  0.86223854    -0.39300
C396        C  0.29074850  0.42763107  0.86399988     0.21500
N397        N  0.23107996  0.36893859  0.85737750    -0.32600
C398        C  0.22682466  0.38670942  0.87234456    -0.10200
C399        C  0.26327433  0.42371974  0.87664797    -0.29000
N400        N  0.39158992  0.47661454  0.84319229    -0.45600
C401        C  0.39608758  0.45888275  0.82827689    -0.04900
C402        C  0.35951732  0.42213620  0.82377610    -0.22200
H403        H  0.27429789  0.36162002  0.82898293     0.19600
H404        H  0.34824850  0.48416940  0.87139752     0.18400
H405        H  0.26924171  0.44495501  0.88763811     0.14700
H406        H  0.35372921  0.40084315  0.81284601     0.14500
H407        H  0.20913172  0.34080711  0.85135654     0.32700
H408        H  0.41508476  0.00850617  0.84788198     0.35400
C409        C  0.34816622  0.42770895  0.76919014     0.21000
C410        C  0.31786416  0.39557157  0.75830107    -0.38800
C411        C  0.29523618  0.40657537  0.74709361     0.20000
C412        C  0.30297114  0.44669292  0.74652815     0.22700
C413        C  0.33283035  0.47859656  0.75754832    -0.39300
C414        C  0.35475593  0.46742911  0.76898528     0.21500
N415        N  0.37471675  0.42581657  0.78060902    -0.32600
C416        C  0.39743001  0.46434850  0.78798484    -0.10200
C417        C  0.38609239  0.49114681  0.78102046    -0.29000
N418        N  0.27802404  0.44949511  0.73455281    -0.45600
C419        C  0.25365338  0.41078818  0.72760778    -0.04900
C420        C  0.26327296  0.38303078  0.73515463    -0.22200
H421        H  0.31234459  0.36438870  0.75852865     0.19600
H422        H  0.34005304  0.01027571  0.75720803     0.18400
H423        H  0.40122143  0.02353547  0.78380749     0.14700
H424        H  0.24884690  0.35017103  0.73228346     0.14500
H425        H  0.37801842  0.40035686  0.78288098     0.32700
H426        H  0.27696320  0.47595050  0.73158397     0.35400
C427        C  0.07293779  0.19209142  0.75202410     0.21000
C428        C  0.07960765  0.18064735  0.76883284    -0.38800
C429        C  0.05017675  0.14058751  0.77392773     0.20000
C430        C  0.01676677  0.11422706  0.76309012     0.22700
C431        C  0.01054756  0.12528572  0.74617557    -0.39300
C432        C  0.03998241  0.16516599  0.74106350     0.21500
N433        N  0.09665874  0.22813519  0.74398845    -0.32600
C434        C  0.07900078  0.22377628  0.72772112    -0.10200
C435        C  0.04362720  0.18489773  0.72538510    -0.29000
N436        N  0.49383943  0.07732331  0.77092960    -0.45600
C437        C  0.01136397  0.08108602  0.78692290    -0.04900
C438        C  0.04748882  0.11958489  0.78918549    -0.22200
H439        H  0.10578191  0.20134864  0.77728332     0.19600
H440        H  0.98478458  0.10427226  0.73759583     0.18400
H441        H  0.02382187  0.17246623  0.71366288     0.14700
H442        H  0.06930342  0.13047863  0.80025590     0.14500
H443        H  0.12405164  0.25349406  0.74896440     0.32700
H444        H  0.46777314  0.05161113  0.76525987     0.35400
C445        C  0.03705725  0.43439596  0.77213756     0.21000
C446        C  0.04256231  0.40187711  0.76643646    -0.38800
C447        C  0.06626457  0.40938571  0.75124190     0.20000
C448        C  0.08314082  0.44647174  0.74249441     0.22700
C449        C  0.07750653  0.47880517  0.74812217    -0.39300
C450        C  0.05386899  0.47128525  0.76323897     0.21500
N451        N  0.01573979  0.43513608  0.78613351    -0.32600
C452        C  0.01935725  0.47288264  0.78609650    -0.10200
C453        C  0.04257268  0.49607834  0.77195580    -0.29000
N454        N  0.10512161  0.44647048  0.72870623    -0.45600
C455        C  0.10235623  0.40913263  0.72857667    -0.04900
C456        C  0.07816711  0.38496302  0.74239229    -0.22200
H457        H  0.53340635  0.37072961  0.77421117     0.19600
H458        H  0.08352719  0.00041317  0.74119045     0.18400
H459        H  0.04210869  0.01830275  0.76791368     0.14700
H460        H  0.07104351  0.35415288  0.74572619     0.14500
H461        H  0.50233444  0.40816457  0.79600652     0.32700
H462        H  0.12140619  0.47065332  0.72001574     0.35400
C463        C  0.24128235  0.30082140  0.43036680     0.21000
C464        C  0.26220921  0.30974794  0.41438806    -0.38800
C465        C  0.26960943  0.27931260  0.40780698     0.20000
C466        C  0.25702547  0.24260850  0.41640129     0.22700
C467        C  0.23604219  0.23368893  0.43247765    -0.39300
C468        C  0.22870207  0.26432257  0.43913536     0.21500
N469        N  0.23004805  0.32453806  0.43909241    -0.32600
C470        C  0.21035323  0.30335212  0.45362206    -0.10200
C471        C  0.20860906  0.26541921  0.45411506    -0.29000
N472        N  0.26853483  0.21915588  0.40743090    -0.45600
C473        C  0.28879981  0.24140865  0.39314448    -0.04900
C474        C  0.28994653  0.27899658  0.39293680    -0.22200
H475        H  0.27207323  0.33836387  0.40759060     0.19600
H476        H  0.22622086  0.20511021  0.43928774     0.18400
H477        H  0.19368700  0.24151824  0.46379467     0.14700
H478        H  0.30450172  0.30324932  0.38337107     0.14500
H479        H  0.23505465  0.35330974  0.43528598     0.32700
H480        H  0.26389579  0.19041674  0.41104195     0.35400
C481        C  0.48105685  0.24360501  0.41141837     0.21000
C482        C  0.01062276  0.22862551  0.42139500    -0.38800
C483        C  0.03859415  0.25830788  0.43382843     0.20000
C484        C  0.04385700  0.29742584  0.43551918     0.22700
C485        C  0.02271540  0.31044611  0.42457356    -0.39300
C486        C  0.99514026  0.28103552  0.41209979     0.21500
N487        N  0.45006881  0.22116724  0.39970243    -0.32600
C488        C  0.44171051  0.24834057  0.39191310    -0.10200
C489        C  0.46745128  0.28842323  0.39874565    -0.29000
N490        N  0.07230098  0.32003235  0.44814309    -0.45600
C491        C  0.08555545  0.29539680  0.45451380    -0.04900
C492        C  0.06571412  0.25679664  0.44578434    -0.22200
H493        H  0.00613765  0.19788459  0.42019411     0.19600
H494        H  0.02724113  0.34120549  0.42575600     0.18400
H495        H  0.46720766  0.31613364  0.39536027     0.14700
H496        H  0.07157496  0.23176445  0.44747791     0.14500
H497        H  0.43531927  0.18927250  0.39722400     0.32700
H498        H  0.08348882  0.35101161  0.45166401     0.35400
C499        C  0.23715670  0.47420134  0.44242357     0.21000
C500        C  0.26959566  0.51363796  0.43820376    -0.38800
C501        C  0.25991198  0.02910851  0.42086137     0.20000
C502        C  0.22867796  0.00415903  0.40874794     0.22700
C503        C  0.19902130  0.46668477  0.41488432    -0.39300
C504        C  0.20315465  0.45194266  0.43121394     0.21500
N505        N  0.23480584  0.45185772  0.45657165    -0.32600
C506        C  0.19880881  0.41539419  0.45432647    -0.10200
C507        C  0.17838790  0.41433993  0.43866466    -0.29000
N508        N  0.23360005  0.02348615  0.39340811    -0.45600
C509        C  0.26812100  0.06103502  0.39575487    -0.04900
C510        C  0.28504843  0.06610129  0.41280314    -0.22200
H511        H  0.29670077  0.53076764  0.44671164     0.19600
H512        H  0.17307984  0.44844749  0.40589441     0.18400
H513        H  0.14976836  0.38897033  0.43319810     0.14700
H514        H  0.31377693  0.09182928  0.41800155     0.14500
H515        H  0.25704383  0.46023509  0.46666717     0.32700
H516        H  0.21590747  0.01104463  0.38174003     0.35400
C517        C  0.27213180  0.24569351  0.59411624     0.21000
C518        C  0.26431422  0.27720398  0.59902905    -0.38800
C519        C  0.24528902  0.27245242  0.61544838     0.20000
C520        C  0.23509119  0.23894680  0.62604115     0.22700
C521        C  0.24276369  0.20761629  0.62113171    -0.39300
C522        C  0.26143317  0.21224513  0.60479350     0.21500
N523        N  0.29060093  0.24302922  0.57942632    -0.32600
C524        C  0.29090543  0.20723820  0.58077031    -0.10200
C525        C  0.27316486  0.18748058  0.59645046    -0.29000
N526        N  0.21630735  0.24059496  0.64068078    -0.45600
C527        C  0.21411032  0.27525184  0.63951348    -0.04900
C528        C  0.23216040  0.29626203  0.62399805    -0.22200
H529        H  0.27223605  0.30327369  0.59068008     0.19600
H530        H  0.23457661  0.18137383  0.62941331     0.18400
H531        H  0.26979991  0.15895867  0.60123491     0.14700
H532        H  0.23400644  0.32418629  0.61931435     0.14500
H533        H  0.30332627  0.26481921  0.56947991     0.32700
H534        H  0.20471099  0.21878349  0.65066635     0.35400
C535        C  0.45680743  0.21138049  0.59803779     0.21300
C536        C  0.47724247  0.19799988  0.60923291    -0.38800
C537        C  0.00781128  0.22888967  0.62208784     0.20000
C538        C  0.01865380  0.26999187  0.62143340     0.22700
C539        C  0.49502350  0.28210549  0.61016139    -0.39300
C540        C  0.46490684  0.25167504  0.59866120     0.21500
N541        N  0.42652328  0.18828979  0.58618056    -0.32600
C542        C  0.41511008  0.21393341  0.57926270    -0.10200
C543        C  0.43781891  0.25357125  0.58687939    -0.29000
N544        N  0.05022721  0.29342356  0.63278934    -0.45600
C545        C  0.05921423  0.26689152  0.64079902    -0.04900
C546        C  0.03315065  0.22635507  0.63458773    -0.22200
H547        H  0.96907657  0.16608740  0.61135870     0.19600
H548        H  0.50151160  0.31365054  0.61057670     0.18400
H549        H  0.43402779  0.27972799  0.58453629     0.14700
H550        H  0.03369810  0.19895666  0.63826086     0.14500
H551        H  0.41339887  0.15668284  0.58336951     0.32700
H552        H  0.06511614  0.32547995  0.63476986     0.35400
C553        C  0.29854087  0.06024757  0.60196599     0.21000
C554        C  0.30469133  0.04942889  0.61890811    -0.38800
C555        C  0.27627642  0.51111532  0.62424982     0.20000
C556        C  0.24025496  0.98411710  0.61379620     0.22700
C557        C  0.23394773  0.99510512  0.59682953    -0.39300
C558        C  0.26443523  0.03435643  0.59135591     0.21500
N559        N  0.32180676  0.09663849  0.59430533    -0.32600
C560        C  0.30255877  0.09434592  0.57869409    -0.10200
C561        C  0.26647409  0.05587249  0.57636283    -0.29000
N562        N  0.21666511  0.45048313  0.62234420    -0.45600
C563        C  0.23504276  0.45454307  0.63842517    -0.04900
C564        C  0.27244878  0.49174706  0.64003617    -0.22200
H565        H  0.33069744  0.07035524  0.62739527     0.19600
H566        H  0.20678195  0.97513220  0.58873840     0.18400
H567        H  0.24377170  0.04580584  0.56566466     0.14700
H568        H  0.29293657  0.50394220  0.65155963     0.14500
H569        H  0.34861018  0.12196434  0.59971017     0.32700
H570        H  0.18763365  0.42664058  0.61798903     0.35400
C571        C  0.25112431  0.23392166  0.53130130     0.21000
C572        C  0.22009317  0.24375552  0.53035346    -0.38800
C573        C  0.22219827  0.26817272  0.51607922     0.20000
C574        C  0.25290559  0.28185719  0.50371964     0.22700
C575        C  0.28421487  0.27239289  0.50477757    -0.39300
C576        C  0.28205717  0.24788874  0.51904364     0.21500
N577        N  0.25589847  0.21110097  0.54356478    -0.32600
C578        C  0.29077840  0.21142475  0.53936975    -0.10200
C579        C  0.30752085  0.23345087  0.52397094    -0.29000
N580        N  0.24686521  0.30287729  0.49096348    -0.45600
C581        C  0.21159152  0.30187025  0.49506332    -0.04900
C582        C  0.19584844  0.28125943  0.51083737    -0.22200
H583        H  0.19583944  0.23281697  0.53991354     0.19600
H584        H  0.30815661  0.28286703  0.49508332     0.18400
H585        H  0.33536966  0.23929236  0.51758291     0.14700
H586        H  0.16778455  0.27496654  0.51715889     0.14500
H587        H  0.23647555  0.19624751  0.55408409     0.32700
H588        H  0.26556437  0.31676441  0.48013675     0.35400
C589        C  0.28151733  0.03135916  0.52794486     0.21000
C590        C  0.27119549  0.49311851  0.52870124    -0.38800
C591        C  0.24368873  0.46792686  0.51508009     0.20000
C592        C  0.22422134  0.48172551  0.50387519     0.22700
C593        C  0.23269396  0.01888951  0.50375122    -0.39300
C594        C  0.26050805  0.04434880  0.51725703     0.21500
N595        N  0.30473486  0.06071334  0.54030248    -0.32600
C596        C  0.29811528  0.09244128  0.53757076    -0.10200
C597        C  0.27125550  0.08361836  0.52312612    -0.29000
N598        N  0.20027809  0.45217544  0.49177505    -0.45600
C599        C  0.20486686  0.41946803  0.49517872    -0.04900
C600        C  0.23124299  0.42790362  0.50977148    -0.22200
H601        H  0.28642523  0.48231311  0.53745033     0.19600
H602        H  0.21602568  0.02899666  0.49551819     0.18400
H603        H  0.25972933  0.10265550  0.51811843     0.14700
H604        H  0.24113199  0.40796585  0.51531019     0.14500
H605        H  0.32342652  0.05898150  0.55015079     0.32700
H606        H  0.18219255  0.45430845  0.48175064     0.35400
C607        C  0.02458204  0.25414681  0.50364187     0.21000
C608        C  0.47933237  0.22178121  0.50358339    -0.38800
C609        C  0.45830429  0.22508021  0.51805627     0.20000
C610        C  0.47684961  0.25761924  0.53030985     0.22700
C611        C  0.02128576  0.29027932  0.53010940    -0.39300
C612        C  0.04286217  0.28675938  0.51588148     0.21500
N613        N  0.05112314  0.25863188  0.49102712    -0.32600
C614        C  0.08652540  0.29451387  0.49515983    -0.10200
C615        C  0.08275512  0.31267906  0.51072567    -0.29000
N616        N  0.45035870  0.25318487  0.54296443    -0.45600
C617        C  0.41481870  0.21734604  0.53882058    -0.04900
C618        C  0.41848992  0.19922241  0.52325257    -0.22200
H619        H  0.46478898  0.19624150  0.49403431     0.19600
H620        H  0.03548337  0.31592417  0.53962040     0.18400
H621        H  0.10562528  0.34166942  0.51703996     0.14700
H622        H  0.39547546  0.17038691  0.51688201     0.14500
H623        H  0.04536443  0.23824382  0.48036686     0.32700
H624        H  0.45614411  0.27382126  0.55350983     0.35400
C625        C  0.33596226  0.67702705  0.54207310     0.46200
H626        H  0.33494973  0.67611206  0.52733185    -0.02900
C627        C  0.33840687  0.67865280  0.57653619     0.46200
H628        H  0.33967964  0.67974892  0.59128515    -0.02900
C629        C  0.38000604  0.70028902  0.55015645    -0.16600
C630        C  0.31430446  0.69821368  0.55046117    -0.16300
C631        C  0.31524903  0.63365973  0.55022481    -0.16700
C632        C  0.38088407  0.70097217  0.56834332    -0.16700
C633        C  0.31549443  0.69867094  0.56866083    -0.16200
C634        C  0.31687434  0.63477286  0.56846929    -0.16500
C635        C  0.16582110  0.83292247  0.45537488     0.46200
H636        H  0.16464332  0.83135980  0.44063424    -0.02900
C637        C  0.16790184  0.83531651  0.48983326     0.46200
H638        H  0.16872007  0.83645217  0.50457416    -0.02900
C639        C  0.18811734  0.81248954  0.46345276    -0.16600
C640        C  0.18751346  0.87701014  0.46333212    -0.16300
C641        C  0.12329965  0.81138812  0.46343535    -0.16700
C642        C  0.18901166  0.81337447  0.48168515    -0.16700
C643        C  0.18931567  0.87858915  0.48159541    -0.16200
C644        C  0.12399445  0.81242961  0.48160795    -0.16500
O645        O  0.09104012  0.74317547  0.69870341    -0.80200
O646        O  0.18576177  0.88892091  0.64963530    -0.64900
O647        O  0.16158150  0.81020958  0.68522880    -1.11500
C648        C  0.12633287  0.89690141  0.71727030     1.06700
O649        O  0.22347697  0.93891049  0.66929704    -0.78100
O650        O  0.22311675  0.92976960  0.70504482    -0.65700
Ni651      Ni  0.12953908  0.75246022  0.68027108     1.34900
C652        C  0.22263534  0.90127506  0.71398949     0.85400
O653        O  0.19362083  0.82222184  0.65120654    -0.78600
O654        O  0.16628537  0.75787253  0.66184008    -0.88900
C655        C  0.21270225  0.92619599  0.65329352     0.85000
O656        O  0.09206174  0.75180066  0.66292782    -0.67100
O657        O  0.14920943  0.92510491  0.70654754    -0.86400
C658        C  0.09186429  0.77973650  0.65381957     0.85800
C659        C  0.18873945  0.78604053  0.65102140     1.07400
H660        H  0.12629412  0.86748092  0.67826128     0.39200
O661        O  0.15233500  0.87217078  0.68285874    -1.09000
O662        O  0.19376964  0.86380317  0.71289113    -0.65700
Ni663      Ni  0.14076235  0.83426537  0.70129963     1.26300
O664        O  0.11975191  0.81768907  0.65509606    -0.65900
O665        O  0.12071487  0.86041649  0.71694942    -0.78200
C666        C  0.10159790  0.75573979  0.71472651     0.85200
O667        O  0.12785935  0.79319985  0.71846706    -0.65400
Ni668      Ni  0.18544935  0.92996070  0.68795273     1.27400
Ni669      Ni  0.17297297  0.84795710  0.66678056     1.26100
H670        H  0.18777559  0.81524099  0.68979478     0.39800
C671        C  0.47676913  0.50212365  0.79169579     0.46200
H672        H  0.47600384  0.50177935  0.77694640    -0.02900
C673        C  0.47801841  0.50201272  0.82617318     0.46200
H674        H  0.47860511  0.50213494  0.84091142    -0.02900
C675        C  0.50105088  0.98193635  0.79901531    -0.16600
C676        C  0.49686716  0.54546151  0.80014102    -0.16300
C677        C  0.43453115  0.97704205  0.79910431    -0.16700
C678        C  0.50200162  0.98255792  0.81725078    -0.16700
C679        C  0.49800360  0.54592118  0.81838262    -0.16200
C680        C  0.43511107  0.97802540  0.81728057    -0.16500
C681        C  0.14774590  0.84647447  0.87538446     0.46200
H682        H  0.14573333  0.84533364  0.86065107    -0.02900
C683        C  0.15257434  0.84924677  0.90983365     0.46200
H684        H  0.15493010  0.85113141  0.92455906    -0.02900
C685        C  0.13094854  0.80354350  0.88367798    -0.16600
C686        C  0.19204701  0.87284007  0.88296830    -0.16300
C687        C  0.12391525  0.86494972  0.88420737    -0.16700
C688        C  0.13371351  0.80529434  0.90192528    -0.16700
C689        C  0.19409446  0.87422676  0.90114651    -0.16200
C690        C  0.12645133  0.86588992  0.90237588    -0.16500
C691        C  0.35492932  0.66059323  0.15946473     0.46200
H692        H  0.35415686  0.65859317  0.17415508    -0.02900
C693        C  0.35778884  0.66659546  0.12515822     0.46200
H694        H  0.35957481  0.66944244  0.11050911    -0.02900
C695        C  0.37675234  0.64013561  0.15049717    -0.16600
C696        C  0.31194733  0.64057117  0.15018027    -0.16300
C697        C  0.37847182  0.70569721  0.15306616    -0.16700
C698        C  0.37816222  0.64362686  0.13237948    -0.16700
C699        C  0.31375013  0.64367995  0.13196775    -0.16200
C700        C  0.37933702  0.70825515  0.13498329    -0.16500
C701        C  0.02728604  0.00778418  0.20731438     0.46200
H702        H  0.02680146  0.00904264  0.19260711    -0.02900
C703        C  0.02774116  0.00360791  0.24167312     0.46200
H704        H  0.02851487  0.00165307  0.25634259    -0.02900
C705        C  0.07108614  0.52867726  0.21866674    -0.16600
C706        C  0.00388496  0.52434945  0.21777087    -0.16300
C707        C  0.00345474  0.96296666  0.21419292    -0.16700
C708        C  0.06941826  0.52651945  0.23694511    -0.16700
C709        C  0.00266844  0.52181249  0.23592790    -0.16200
C710        C  0.00377891  0.96144350  0.23232086    -0.16500
O711        O  0.28455954  0.57119608  0.36606437    -0.80200
O712        O  0.38901556  0.71750325  0.31539768    -0.64900
O713        O  0.35568943  0.63861638  0.35195467    -1.11500
C714        C  0.31669799  0.72711513  0.38052448     1.06700
O715        O  0.41889832  0.76891741  0.33509037    -0.78100
O716        O  0.41409182  0.76044169  0.37041498    -0.65700
Ni717      Ni  0.32054203  0.58108392  0.34643685     1.34900
C718        C  0.41377440  0.73266580  0.37980963     0.85400
O719        O  0.39541295  0.65101126  0.31968515    -0.78600
O720        O  0.35367879  0.58441416  0.32661271    -0.88900
C721        C  0.41061385  0.75575449  0.31912586     0.85000
O722        O  0.28267020  0.58671475  0.33170045    -0.67100
O723        O  0.33975722  0.75460757  0.36963509    -0.86400
C724        C  0.28805397  0.61368111  0.32049369     0.85800
C725        C  0.38287632  0.61265744  0.31780019     1.07400
H726        H  0.32210764  0.69538013  0.34163234     0.39200
O727        O  0.34757008  0.70109630  0.34731600    -1.09000
O728        O  0.38569449  0.69483203  0.37877517    -0.65700
Ni729      Ni  0.33356962  0.66419164  0.36647881     1.26300
O730        O  0.32183044  0.64755698  0.31905077    -0.65900
O731        O  0.31156948  0.69088330  0.38077694    -0.78200
C732        C  0.29382978  0.58688321  0.38168490     0.85200
O733        O  0.31936912  0.62490645  0.38456473    -0.65400
Ni734      Ni  0.37819216  0.75935246  0.35222445     1.27400
Ni735      Ni  0.37200693  0.67690155  0.33313659     1.26100
H736        H  0.38030188  0.64188424  0.35758556     0.39800
O737        O  0.04632628  0.60922846  0.00320662    -0.80200
O738        O  0.48549297  0.94254121  0.04908598    -0.64900
O739        O  0.03949585  0.53423160  0.01337920    -1.11500
C740        C  0.41227592  0.95545559  0.98272752     1.06700
O741        O  0.43333961  0.89157246  0.03319795    -0.78100
O742        O  0.47701439  0.91537893  0.00182528    -0.65700
Ni743      Ni  0.07370086  0.59171821  0.01951463     1.34900
C744        C  0.00521281  0.95092900  0.98805429     0.85400
O745        O  0.06678896  0.51438717  0.04466405    -0.78600
O746        O  0.10526274  0.58019958  0.03600449    -0.88900
C747        C  0.45496093  0.90606006  0.04740321     0.85000
O748        O  0.04133330  0.59424105  0.03814509    -0.67100
O749        O  0.41560434  0.92512040  0.98756234    -0.86400
C750        C  0.51045815  0.56748053  0.04799245     0.85800
C751        C  0.09986912  0.54985989  0.04527062     1.07400
H752        H  0.44273163  0.97537830  0.02619558     0.39200
O753        O  0.46018025  0.96887276  0.01931428    -1.09000
O754        O  0.00535859  0.98454653  0.98644653    -0.65700
Ni755      Ni  0.48534153  0.51381864  0.00097291     1.26300
O756        O  0.49972713  0.52962774  0.04692206    -0.65900
O757        O  0.43491964  0.99147608  0.98930008    -0.78200
C758        C  0.03553107  0.59698760  0.98720520     0.85200
O759        O  0.01574713  0.55880883  0.98300414    -0.65400
Ni760      Ni  0.42853660  0.91251054  0.01072280     1.27400
Ni761      Ni  0.01389623  0.99836536  0.03397525     1.26100
H762        H  0.05642221  0.52684125  0.00660017     0.39800
C763        C  0.21894014  0.60389630  0.28541007     0.21000
C764        C  0.20681806  0.61063212  0.26865761    -0.38800
C765        C  0.16570333  0.58268112  0.26338904     0.20000
C766        C  0.13916606  0.55080515  0.27403447     0.22700
C767        C  0.15106446  0.54427574  0.29072352    -0.39300
C768        C  0.19186517  0.57190937  0.29593941     0.21500
N769        N  0.25672463  0.62427307  0.29312321    -0.32600
C770        C  0.25337881  0.60458665  0.30850761    -0.10200
C771        C  0.21334432  0.57208972  0.31075913    -0.29000
N772        N  0.10234632  0.52773393  0.26600109    -0.45600
C773        C  0.10489105  0.54424282  0.24987530    -0.04900
C774        C  0.14395898  0.57939242  0.24794354    -0.22200
H775        H  0.22797573  0.63515159  0.26022484     0.19600
H776        H  0.13027276  0.51885789  0.29888113     0.18400
H777        H  0.20187764  0.55046994  0.32148628     0.14700
H778        H  0.15508029  0.59996640  0.23686541     0.14500
H779        H  0.28339233  0.64878752  0.28792023     0.32700
H780        H  0.08280189  0.98143259  0.26138036     0.35400
C781        C  0.46435039  0.86729122  0.25760544     0.21000
C782        C  0.46190956  0.83034843  0.26268269    -0.38800
C783        C  0.44572536  0.81632669  0.27952177     0.20000
C784        C  0.43377174  0.83800878  0.29046062     0.22700
C785        C  0.43512809  0.87403872  0.28521927    -0.39300
C786        C  0.45066222  0.88758508  0.26841291     0.21500
N787        N  0.99671590  0.89694620  0.24490137    -0.32600
C788        C  0.47936789  0.92394242  0.24495802    -0.10200
C789        C  0.45924411  0.92320734  0.26031823    -0.29000
N790        N  0.42147660  0.81979834  0.30608601    -0.45600
C791        C  0.42458634  0.78567690  0.30501555    -0.04900
C792        C  0.43929901  0.78205755  0.28863449    -0.22200
H793        H  0.99884170  0.83103726  0.26106815     0.19600
H794        H  0.42593565  0.89100862  0.29382747     0.18400
H795        H  0.45328329  0.94647982  0.26537486     0.14700
H796        H  0.44468869  0.75786791  0.28409959     0.14500
H797        H  0.02096238  0.89709083  0.23839250     0.32700
H798        H  0.41048956  0.82931644  0.31667466     0.35400
C799        C  0.43713683  0.59922106  0.28238174     0.21000
C800        C  0.46116261  0.60935969  0.26716244    -0.38800
C801        C  0.46824964  0.57851512  0.26058151     0.20000
C802        C  0.45269394  0.54069932  0.26862810     0.22700
C803        C  0.42840723  0.53043320  0.28366275    -0.39300
C804        C  0.42119811  0.56106800  0.29015784     0.21500
N805        N  0.42614588  0.62305496  0.29136931    -0.32600
C806        C  0.40273752  0.59954325  0.30479675    -0.10200
C807        C  0.39896714  0.56074814  0.30443970    -0.29000
N808        N  0.46466990  0.51716652  0.26024624    -0.45600
C809        C  0.48773489  0.53984076  0.24663697    -0.04900
C810        C  0.49080768  0.57839967  0.24638078    -0.22200
H811        H  0.47361240  0.63907616  0.26098918     0.19600
H812        H  0.41622144  0.50082611  0.28991395     0.18400
H813        H  0.38223895  0.53569464  0.31346136     0.14700
H814        H  0.50788554  0.60317725  0.23728583     0.14500
H815        H  0.43358653  0.65310836  0.28842631     0.32700
H816        H  0.94723377  0.48302055  0.26342391     0.35400
C817        C  0.39126714  0.78701142  0.10617700     0.21000
C818        C  0.37731405  0.80446186  0.09365665    -0.38800
C819        C  0.40748205  0.83392146  0.08278340     0.20000
C820        C  0.44857992  0.84575137  0.08450097     0.22700
C821        C  0.46239059  0.82762419  0.09678170    -0.39300
C822        C  0.43206418  0.79761666  0.10746387     0.21500
N823        N  0.36814763  0.75606164  0.11703182    -0.32600
C824        C  0.39419913  0.74651548  0.12512233    -0.10200
C825        C  0.43429527  0.77144097  0.11939535    -0.29000
N826        N  0.47098422  0.87390260  0.07239575    -0.45600
C827        C  0.44372859  0.87912526  0.06267249    -0.04900
C828        C  0.40384103  0.85474011  0.06869574    -0.22200
H829        H  0.34513670  0.79485853  0.09213164     0.19600
H830        H  0.49415547  0.83544918  0.09760445     0.18400
H831        H  0.46078523  0.76872467  0.12249701     0.14700
H832        H  0.37599376  0.85239563  0.06339151     0.14500
H833        H  0.33619751  0.74062276  0.11810417     0.32700
H834        H  0.97097561  0.84524253  0.04913369     0.35400
C835        C  0.22220559  0.58776307  0.10428291     0.21000
C836        C  0.18324228  0.55501564  0.09845281    -0.38800
C837        C  0.16907852  0.55979018  0.08175539     0.20000
C838        C  0.19229943  0.59441078  0.07173160     0.22700
C839        C  0.23107091  0.62675957  0.07746477    -0.39300
C840        C  0.24488131  0.62211502  0.09407357     0.21500
N841        N  0.24276094  0.59126289  0.11961129    -0.32600
C842        C  0.27862312  0.62824727  0.11903786    -0.10200
C843        C  0.28080061  0.64810000  0.10327603    -0.29000
N844        N  0.17135547  0.59341652  0.05707860    -0.45600
C845        C  0.13410441  0.55813410  0.05761936    -0.04900
C846        C  0.13162610  0.53591590  0.07275302    -0.22200
H847        H  0.16497556  0.52830337  0.10646413     0.19600
H848        H  0.24887007  0.65406286  0.06969790     0.18400
H849        H  0.30574278  0.67742749  0.09889719     0.14700
H850        H  0.10512287  0.50776994  0.07718698     0.14500
H851        H  0.23360987  0.56931506  0.12949896     0.32700
H852        H  0.18113624  0.61661225  0.04771708     0.35400
C853        C  0.43721313  0.63313719  0.09854760     0.21000
C854        C  0.46318784  0.64579172  0.08401767    -0.38800
C855        C  0.47176664  0.61649319  0.07704697     0.20000
C856        C  0.45543875  0.57739193  0.08392696     0.22700
C857        C  0.42957351  0.56476702  0.09858600    -0.39300
C858        C  0.42121808  0.59429929  0.10567197     0.21500
N859        N  0.42407872  0.65521623  0.10730363    -0.32600
C860        C  0.39990513  0.63062817  0.12024989    -0.10200
C861        C  0.39714430  0.59220637  0.11967382    -0.29000
N862        N  0.46739690  0.55498227  0.07451613    -0.45600
C863        C  0.49154283  0.58014081  0.06162709    -0.04900
C864        C  0.49520806  0.61883263  0.06285105    -0.22200
H865        H  0.47557326  0.67615469  0.07846974     0.19600
H866        H  0.41673020  0.53420480  0.10398068     0.18400
H867        H  0.37946703  0.56621508  0.12813629     0.14700
H868        H  0.02829543  0.64792201  0.05881985     0.14500
H869        H  0.43124524  0.68533844  0.10467683     0.32700
H870        H  0.45942042  0.52442127  0.07665052     0.35400
C871        C  0.47557023  0.57800292  0.18646352     0.21000
C872        C  0.47867731  0.60373777  0.17257651    -0.38800
C873        C  0.44450989  0.60828134  0.16982871     0.20000
C874        C  0.40986836  0.58873318  0.18009721     0.22700
C875        C  0.40672585  0.56291706  0.19397123    -0.39300
C876        C  0.44094585  0.55845536  0.19674758     0.21500
N877        N  0.99870612  0.56311966  0.19212553    -0.32600
C878        C  0.48776688  0.54450784  0.20605354    -0.10200
C879        C  0.44816061  0.53656303  0.20925217    -0.29000
N880        N  0.38162420  0.59806495  0.17473350    -0.45600
C881        C  0.39818725  0.62324144  0.16078953    -0.04900
C882        C  0.43762251  0.63075462  0.15751103    -0.22200
H883        H  0.00177495  0.61066802  0.16336280     0.19600
H884        H  0.37976187  0.54763962  0.20207209     0.18400
H885        H  0.42751198  0.51752680  0.21942523     0.14700
H886        H  0.45849460  0.65006259  0.14745874     0.14500
H887        H  0.02669912  0.57099541  0.18642706     0.32700
H888        H  0.35258275  0.58735083  0.17998594     0.35400
C889        C  0.23042885  0.59210544  0.18126429     0.21000
C890        C  0.20987896  0.56848422  0.19600119    -0.38800
C891        C  0.17076896  0.56277348  0.19893611     0.20000
C892        C  0.15363450  0.57974497  0.18817310     0.22700
C893        C  0.17419456  0.60336839  0.17342302    -0.39300
C894        C  0.21308619  0.60858990  0.17033172     0.21500
N895        N  0.26757815  0.60137097  0.17547009    -0.32600
C896        C  0.27373931  0.62326526  0.16053699    -0.10200
C897        C  0.24053333  0.62876160  0.15701791    -0.29000
N898        N  0.11613043  0.56977162  0.19380324    -0.45600
C899        C  0.10944101  0.54662834  0.20836757    -0.04900
C900        C  0.14256700  0.54092831  0.21174795    -0.22200
H901        H  0.22320756  0.55521515  0.20447113     0.19600
H902        H  0.16071681  0.61634893  0.16487125     0.18400
H903        H  0.23709558  0.64559739  0.14628355     0.14700
H904        H  0.14539258  0.02042671  0.21889116     0.14500
H905        H  0.28731585  0.59281580  0.18118872     0.32700
H906        H  0.09640946  0.57844424  0.18817384     0.35400
C907        C  0.44178476  0.80581171  0.17340165     0.21000
C908        C  0.47588727  0.84627962  0.17473687    -0.38800
C909        C  0.47210449  0.87331536  0.18648277     0.20000
C910        C  0.43711491  0.86076845  0.19624971     0.22700
C911        C  0.40290288  0.82032917  0.19482164    -0.39300
C912        C  0.40657722  0.79332169  0.18298613     0.21500
N913        N  0.43714899  0.77500595  0.16260526    -0.32600
C914        C  0.39844209  0.74286875  0.16496259    -0.10200
C915        C  0.37857414  0.75279048  0.17783469    -0.29000
N916        N  0.44208587  0.89147843  0.20724935    -0.45600
C917        C  0.48054018  0.92374405  0.20453624    -0.04900
C918        C  0.00196853  0.91701332  0.18859034    -0.22200
H919        H  0.00447764  0.86172095  0.16237738     0.19600
H920        H  0.37548422  0.81061359  0.20240018     0.18400
H921        H  0.34707728  0.73394275  0.18195408     0.14700
H922        H  0.03234669  0.93731495  0.18353758     0.14500
H923        H  0.45879026  0.77616565  0.15385327     0.32700
H924        H  0.42115924  0.89008127  0.21650462     0.35400
C925        C  0.27634915  0.92533578  0.93295188     0.21000
C926        C  0.29796504  0.95050694  0.94779968    -0.38800
C927        C  0.33151711  0.94754202  0.95386310     0.20000
C928        C  0.34206544  0.92092908  0.94592851     0.22700
C929        C  0.32090076  0.89633442  0.93095763    -0.39300
C930        C  0.28790508  0.89981319  0.92473111     0.21500
N931        N  0.24189384  0.92042757  0.92525132    -0.32600
C932        C  0.23221380  0.89222825  0.91190415    -0.10200
C933        C  0.26003253  0.87861836  0.91114283    -0.29000
N934        N  0.37282070  0.92114282  0.95502095    -0.45600
C935        C  0.38233520  0.94851646  0.96867548    -0.04900
C936        C  0.35761419  0.96599526  0.96836191    -0.22200
H937        H  0.28876346  0.97013226  0.95438656     0.19600
H938        H  0.32887932  0.87523307  0.92487832     0.18400
H939        H  0.25877793  0.85496414  0.90236412     0.14700
H940        H  0.35733400  0.98749693  0.97797041     0.14500
H941        H  0.22542855  0.93451680  0.92904450     0.32700
H942        H  0.38601580  0.90320979  0.95232306     0.35400
C943        C  0.08375603  0.68573873  0.96032418     0.21000
C944        C  0.11545620  0.72510382  0.95583010    -0.38800
C945        C  0.11323700  0.73703236  0.93859573     0.20000
C946        C  0.08140646  0.71222233  0.92675988     0.22700
C947        C  0.04974374  0.67235892  0.93119491    -0.39300
C948        C  0.05249755  0.65987624  0.94841774     0.21500
N949        N  0.08006479  0.66702171  0.97572311    -0.32600
C950        C  0.04693931  0.62840676  0.97360600    -0.10200
C951        C  0.02863140  0.62266965  0.95675062    -0.29000
N952        N  0.08526485  0.73232021  0.91161746    -0.45600
C953        C  0.12011518  0.76993920  0.91389054    -0.04900
C954        C  0.13843940  0.77361853  0.93049508    -0.22200
H955        H  0.14014986  0.74501344  0.96509698     0.19600
H956        H  0.02504069  0.65252441  0.92192379     0.18400
H957        H  0.00220289  0.59487287  0.95123263     0.14700
H958        H  0.16574140  0.80022757  0.93622474     0.14500
H959        H  0.10009296  0.67916478  0.98675557     0.32700
H960        H  0.06421883  0.72193188  0.90093497     0.35400
C961        C  0.06399582  0.94241955  0.95335671     0.21000
C962        C  0.08615405  0.95242957  0.93755959    -0.38800
C963        C  0.09166016  0.92112427  0.93016874     0.20000
C964        C  0.07647811  0.88317170  0.93806220     0.22700
C965        C  0.05482467  0.87339657  0.95380619    -0.39300
C966        C  0.04920516  0.90436301  0.96108270     0.21500
N967        N  0.05185309  0.96522620  0.96243674    -0.32600
C968        C  0.02903356  0.94106048  0.97586167    -0.10200
C969        C  0.02723884  0.90322814  0.97553663    -0.29000
N970        N  0.08574065  0.85872327  0.92870779    -0.45600
C971        C  0.10681558  0.88088801  0.91464936    -0.04900
C972        C  0.11140936  0.92015438  0.91504485    -0.22200
H973        H  0.09757744  0.98197344  0.93134821     0.19600
H974        H  0.04260920  0.84351082  0.95980550     0.18400
H975        H  0.01020379  0.87740427  0.98416762     0.14700
H976        H  0.12795261  0.94486898  0.90585877     0.14500
H977        H  0.05722986  0.99449007  0.95928013     0.32700
H978        H  0.07873450  0.82888307  0.93183027     0.35400
C979        C  0.03083195  0.93413064  0.84875679     0.21000
C980        C  0.02698821  0.90909191  0.86309932    -0.38800
C981        C  0.05914797  0.90117321  0.86545610     0.20000
C982        C  0.09252972  0.91708192  0.85441554     0.22700
C983        C  0.09650822  0.94233965  0.84020484    -0.39300
C984        C  0.06432493  0.95004503  0.83778406     0.21500
N985        N  0.00379637  0.94489853  0.84319786    -0.32600
C986        C  0.01994659  0.96719380  0.82842899    -0.10200
C987        C  0.05800306  0.97164110  0.82482721    -0.29000
N988        N  0.11888562  0.90503916  0.85939051    -0.45600
C989        C  0.10254998  0.88172217  0.87384739    -0.04900
C990        C  0.06503848  0.87824466  0.87795062    -0.22200
H991        H  0.00075255  0.89638698  0.87166078     0.19600
H992        H  0.12248906  0.95461911  0.83151091     0.18400
H993        H  0.07629096  0.48321371  0.81145948     0.14700
H994        H  0.04497535  0.86154219  0.88869771     0.14500
H995        H  0.47647575  0.93338994  0.84769210     0.32700
H996        H  0.14690354  0.91318014  0.85362842     0.35400
C997        C  0.07348560  0.71614107  0.85419541     0.21000
C998        C  0.04218837  0.69122582  0.84174704    -0.38800
C999        C  0.03443717  0.65084007  0.83919787     0.20000
C1000       C  0.05638352  0.63631591  0.84822722     0.22700
C1001       C  0.08776864  0.66128348  0.86072327    -0.39300
C1002       C  0.09527465  0.70167342  0.86340602     0.21500
N1003       N  0.08515931  0.75490427  0.85960197    -0.32600
C1004       C  0.11384894  0.76498819  0.87268026    -0.10200
C1005       C  0.12162246  0.73286288  0.87520596    -0.29000
N1006       N  0.04425274  0.59738395  0.84274870    -0.45600
C1007       C  0.01488112  0.58740887  0.82995072    -0.04900
C1008       C  0.00735212  0.61968555  0.82766411    -0.22200
H1009       H  0.02500293  0.70243942  0.83459747     0.19600
H1010       H  0.10488641  0.65003228  0.86790114     0.18400
H1011       H  0.14238912  0.73180922  0.88490071     0.14700
H1012       H  0.48763563  0.61783891  0.81743089     0.14500
H1013       H  0.07277954  0.77262802  0.85534521     0.32700
H1014       H  0.05666810  0.57952117  0.84675503     0.35400
C1015       C  0.27179278  0.89867535  0.85194010     0.21000
C1016       C  0.29156649  0.89118103  0.83805806    -0.38800
C1017       C  0.33315935  0.92120267  0.83607463     0.20000
C1018       C  0.35364930  0.95606021  0.84704797     0.22700
C1019       C  0.33385923  0.96357505  0.86095985    -0.39300
C1020       C  0.29220917  0.93348202  0.86296224     0.21500
N1021       N  0.23291514  0.87388882  0.85709248    -0.32600
C1022       C  0.22870045  0.89263266  0.87169803    -0.10200
C1023       C  0.26486122  0.93025569  0.87558180    -0.29000
N1024       N  0.39299144  0.97998128  0.84221002    -0.45600
C1025       C  0.39735989  0.96041678  0.82790940    -0.04900
C1026       C  0.36079470  0.92338148  0.82388253    -0.22200
H1027       H  0.27580624  0.86384100  0.82949925     0.19600
H1028       H  0.34979353  0.99058391  0.86969425     0.18400
H1029       H  0.27088908  0.95164036  0.88655527     0.14700
H1030       H  0.35496748  0.90096909  0.81342642     0.14500
H1031       H  0.21130333  0.84493866  0.85160656     0.32700
H1032       H  0.41360864  0.50450275  0.84936565     0.35400
C1033       C  0.34824067  0.92729373  0.76918167     0.21000
C1034       C  0.31839340  0.89559300  0.75803893    -0.38800
C1035       C  0.29671192  0.90722149  0.74661694     0.20000
C1036       C  0.30457336  0.94740482  0.74619002     0.22700
C1037       C  0.33391732  0.97887406  0.75750240    -0.39300
C1038       C  0.35520524  0.96717792  0.76903801     0.21500
N1039       N  0.37459341  0.92499909  0.78054518    -0.32600
C1040       C  0.39772110  0.96352217  0.78783847    -0.10200
C1041       C  0.38671298  0.99064391  0.78099846    -0.29000
N1042       N  0.28033409  0.95070008  0.73400105    -0.45600
C1043       C  0.25641948  0.91221632  0.72678272    -0.04900
C1044       C  0.26560943  0.88419302  0.73433286    -0.22200
H1045       H  0.31274497  0.86435263  0.75813492     0.19600
H1046       H  0.33864247  0.50987864  0.75720941     0.18400
H1047       H  0.39995316  0.52391696  0.78395007     0.14700
H1048       H  0.25109599  0.85135270  0.73138683     0.14500
H1049       H  0.37772928  0.89940479  0.78272086     0.32700
H1050       H  0.27922013  0.97718843  0.73116705     0.35400
C1051       C  0.07449154  0.69674387  0.75394832     0.21000
C1052       C  0.08048706  0.68549949  0.77091875    -0.38800
C1053       C  0.04959906  0.64636293  0.77634330     0.20000
C1054       C  0.01537699  0.62090965  0.76571067     0.22700
C1055       C  0.00967812  0.63185910  0.74873426    -0.39300
C1056       C  0.04063189  0.67055893  0.74325086     0.21500
N1057       N  0.09999029  0.73136818  0.74534842    -0.32600
C1058       C  0.08235805  0.72658371  0.72903411    -0.10200
C1059       C  0.04538543  0.68910601  0.72722140    -0.29000
N1060       N  0.49416691  0.58080136  0.77312238    -0.45600
C1061       C  0.01051719  0.58652931  0.78898535    -0.04900
C1062       C  0.04707330  0.62461470  0.79132611    -0.22200
H1063       H  0.10759042  0.70526432  0.77908111     0.19600
H1064       H  0.98357060  0.61123361  0.74022957     0.18400
H1065       H  0.02521418  0.67673970  0.71560561     0.14700
H1066       H  0.06975829  0.63424805  0.80200906     0.14500
H1067       H  0.12832359  0.75591730  0.75000154     0.32700
H1068       H  0.46604171  0.55681949  0.76801641     0.35400
C1069       C  0.03902833  0.93098751  0.77440975     0.21000
C1070       C  0.04818868  0.90038911  0.76954976    -0.38800
C1071       C  0.07079919  0.90775560  0.75396794     0.20000
C1072       C  0.08324412  0.94290838  0.74417086     0.22700
C1073       C  0.07393522  0.97308882  0.74893618    -0.39300
C1074       C  0.05147527  0.96572631  0.76434218     0.21500
N1075       N  0.01798937  0.93183793  0.78853394    -0.32600
C1076       C  0.01754635  0.96755777  0.78725627    -0.10200
C1077       C  0.03781411  0.98913126  0.77231729    -0.29000
N1078       N  0.10440992  0.94318968  0.73006002    -0.45600
C1079       C  0.10541639  0.90783699  0.73063941    -0.04900
C1080       C  0.08479021  0.88476449  0.74537598    -0.22200
H1081       H  0.53854934  0.87008486  0.77647703     0.19600
H1082       H  0.09070842  0.50777853  0.74126475     0.18400
H1083       H  0.05005070  0.52695840  0.76852280     0.14700
H1084       H  0.08082426  0.85542067  0.74929395     0.14500
H1085       H  0.50673239  0.90836111  0.79773078     0.32700
H1086       H  0.11722200  0.96605638  0.72053608     0.35400
C1087       C  0.24493613  0.79655869  0.43013356     0.21000
C1088       C  0.27016823  0.80745984  0.41541033    -0.38800
C1089       C  0.27725645  0.77695092  0.40869825     0.20000
C1090       C  0.26064086  0.73830321  0.41604401     0.22700
C1091       C  0.23549973  0.72741360  0.43100463    -0.39300
C1092       C  0.22831232  0.75819857  0.43778617     0.21500
N1093       N  0.23290332  0.82005955  0.43848546    -0.32600
C1094       C  0.20873885  0.79709728  0.45176228    -0.10200
C1095       C  0.20489958  0.75807389  0.45180216    -0.29000
N1096       N  0.27195240  0.71486155  0.40685318    -0.45600
C1097       C  0.29582926  0.73903988  0.39363148    -0.04900
C1098       C  0.29983561  0.77792623  0.39445334    -0.22200
H1099       H  0.28304015  0.83748990  0.40948091     0.19600
H1100       H  0.22228785  0.69723059  0.43681276     0.18400
H1101       H  0.18688084  0.73294898  0.46061600     0.14700
H1102       H  0.31716929  0.80363328  0.38580237     0.14500
H1103       H  0.24060305  0.85008323  0.43532197     0.32700
H1104       H  0.26417462  0.68455370  0.40945590     0.35400
C1105       C  0.48748582  0.74223197  0.41225529     0.21000
C1106       C  0.00573658  0.73149082  0.42132773    -0.38800
C1107       C  0.03615761  0.76136771  0.43281958     0.20000
C1108       C  0.04601079  0.80223816  0.43320212     0.22700
C1109       C  0.02683194  0.81665817  0.42175268    -0.39300
C1110       C  0.99672910  0.78683900  0.41008325     0.21500
N1111       N  0.45724916  0.71909205  0.40035466    -0.32600
C1112       C  0.44707100  0.74530179  0.39295711    -0.10200
C1113       C  0.47062357  0.78520045  0.40019704    -0.29000
N1114       N  0.07669468  0.82461936  0.44502380    -0.45600
C1115       C  0.08650706  0.79784559  0.45209000    -0.04900
C1116       C  0.06228087  0.75823027  0.44469152    -0.22200
H1117       H  0.99792119  0.69950968  0.42110563     0.19600
H1118       H  0.03489601  0.84871293  0.42186353     0.18400
H1119       H  0.46859993  0.81209622  0.39711095     0.14700
H1120       H  0.06465697  0.73127233  0.44713757     0.14500
H1121       H  0.44430325  0.68752840  0.39747809     0.32700
H1122       H  0.09121240  0.85643822  0.44764798     0.35400
C1123       C  0.23555125  0.97303743  0.44049267     0.21000
C1124       C  0.26475387  0.01445243  0.43717666    -0.38800
C1125       C  0.26528759  0.52865418  0.42188786     0.20000
C1126       C  0.23154076  0.50578692  0.41058445     0.22700
C1127       C  0.19917393  0.96311220  0.41219761    -0.39300
C1128       C  0.20381422  0.94872071  0.42852400     0.21500
N1129       N  0.23455468  0.95091448  0.45450114    -0.32600
C1130       C  0.20128033  0.91254920  0.45153276    -0.10200
C1131       C  0.18166583  0.91009247  0.43539733    -0.29000
N1132       N  0.23664431  0.52474763  0.39512551    -0.45600
C1133       C  0.27374967  0.56005660  0.39661714    -0.04900
C1134       C  0.29237649  0.56399051  0.41318685    -0.22200
H1135       H  0.29011861  0.03338524  0.44632639     0.19600
H1136       H  0.17526815  0.94335772  0.40259581     0.18400
H1137       H  0.15490189  0.88351804  0.42934472     0.14700
H1138       H  0.32288349  0.58781422  0.41768620     0.14500
H1139       H  0.25601653  0.96105511  0.46501500     0.32700
H1140       H  0.21695384  0.51350453  0.38396376     0.35400
C1141       C  0.27584695  0.75138678  0.59392401     0.21000
C1142       C  0.27089887  0.78416511  0.59992229    -0.38800
C1143       C  0.24597989  0.77587934  0.61480833     0.20000
C1144       C  0.22760938  0.73790299  0.62289764     0.22700
C1145       C  0.23259152  0.70549144  0.61696965    -0.39300
C1146       C  0.25738612  0.71374916  0.60228858     0.21500
N1147       N  0.29855645  0.75109777  0.58037186    -0.32600
C1148       C  0.29431976  0.71302713  0.58040802    -0.10200
C1149       C  0.26903902  0.68909306  0.59385042    -0.29000
N1150       N  0.20553168  0.73730009  0.63669477    -0.45600
C1151       C  0.20957495  0.77511122  0.63759519    -0.04900
C1152       C  0.23464978  0.80027401  0.62415374    -0.22200
H1153       H  0.28547663  0.81382204  0.59357725     0.19600
H1154       H  0.21840320  0.67598859  0.62343881     0.18400
H1155       H  0.26072111  0.65787781  0.59711255     0.14700
H1156       H  0.24318056  0.83185168  0.62154386     0.14500
H1157       H  0.31649765  0.77536813  0.57196185     0.32700
H1158       H  0.18855230  0.71242890  0.64498300     0.35400
C1159       C  0.45780953  0.71051345  0.59882644     0.21300
C1160       C  0.47654968  0.69605503  0.61048758    -0.38800
C1161       C  0.01248228  0.73052636  0.61953791     0.20000
C1162       C  0.01969233  0.77048155  0.62038842     0.22700
C1163       C  0.49842747  0.78142631  0.61051456    -0.39300
C1164       C  0.46801564  0.75148567  0.59898589     0.21500
N1165       N  0.42729263  0.68805650  0.58695354    -0.32600
C1166       C  0.41785916  0.71481738  0.57959444    -0.10200
C1167       C  0.44224813  0.75459379  0.58685495    -0.29000
N1168       N  0.04819322  0.79306856  0.63306458    -0.45600
C1169       C  0.05866890  0.76704375  0.64046570    -0.04900
C1170       C  0.03692225  0.72775343  0.63242992    -0.22200
H1171       H  0.97918185  0.66950836  0.60658691     0.19600
H1172       H  0.50654104  0.81349200  0.61056938     0.18400
H1173       H  0.44005866  0.78158692  0.58422479     0.14700
H1174       H  0.03974751  0.70118802  0.63522522     0.14500
H1175       H  0.41263361  0.65617863  0.58446820     0.32700
H1176       H  0.06007756  0.82428513  0.63635565     0.35400
C1177       C  0.29847005  0.56315782  0.60278081     0.21000
C1178       C  0.30611809  0.55074492  0.61908645    -0.38800
C1179       C  0.27413707  0.01054823  0.62443324     0.20000
C1180       C  0.24170295  0.48543982  0.61382214     0.22700
C1181       C  0.23398066  0.49797861  0.59746863    -0.39300
C1182       C  0.26371420  0.53798131  0.59239440     0.21500
N1183       N  0.32131446  0.60010985  0.59545046    -0.32600
C1184       C  0.30141027  0.59873833  0.58016488    -0.10200
C1185       C  0.26491638  0.56052916  0.57788587    -0.29000
N1186       N  0.21476290  0.94973304  0.62252324    -0.45600
C1187       C  0.23235119  0.95487836  0.63886706    -0.04900
C1188       C  0.26942746  0.99231473  0.64055451    -0.22200
H1189       H  0.33268646  0.57105437  0.62742878     0.19600
H1190       H  0.20631898  0.47854704  0.58956366     0.18400
H1191       H  0.24198262  0.55086306  0.56730645     0.14700
H1192       H  0.28949995  0.00501753  0.65218654     0.14500
H1193       H  0.34878250  0.62488697  0.60066869     0.32700
H1194       H  0.18631026  0.92521934  0.61796120     0.35400
C1195       C  0.25248210  0.73498584  0.53087115     0.21000
C1196       C  0.21996310  0.74260734  0.52938890    -0.38800
C1197       C  0.22050661  0.76472640  0.51448436     0.20000
C1198       C  0.25114972  0.77826318  0.50209164     0.22700
C1199       C  0.28366993  0.77077339  0.50361376    -0.39300
C1200       C  0.28302593  0.74851456  0.51843980     0.21500
N1201       N  0.25902561  0.71461354  0.54374655    -0.32600
C1202       C  0.29427091  0.71561951  0.53955759    -0.10200
C1203       C  0.30980587  0.73604556  0.52375181    -0.29000
N1204       N  0.24436713  0.79787387  0.48898031    -0.45600
C1205       C  0.20880217  0.79632494  0.49289321    -0.04900
C1206       C  0.19329237  0.77643204  0.50883499    -0.22200
H1207       H  0.19595628  0.73194187  0.53906090     0.19600
H1208       H  0.30751955  0.78120000  0.49387848     0.18400
H1209       H  0.33749873  0.74180762  0.51724247     0.14700
H1210       H  0.16533927  0.77043726  0.51517522     0.14500
H1211       H  0.24019938  0.70043971  0.55450709     0.32700
H1212       H  0.26317594  0.81181656  0.47818965     0.35400
C1213       C  0.27760969  0.53321334  0.53029954     0.21000
C1214       C  0.27651768  0.99181216  0.52581688    -0.38800
C1215       C  0.24859249  0.96628468  0.51229923     0.20000
C1216       C  0.22743393  0.97929654  0.50171557     0.22700
C1217       C  0.23060475  0.52182570  0.50548780    -0.39300
C1218       C  0.25803062  0.54698848  0.51914599     0.21500
N1219       N  0.30154439  0.56270778  0.54240602    -0.32600
C1220       C  0.29666432  0.59527118  0.53913587    -0.10200
C1221       C  0.27027086  0.58691752  0.52455858    -0.29000
N1222       N  0.20273402  0.94943633  0.48984532    -0.45600
C1223       C  0.20856893  0.91728647  0.49265486    -0.04900
C1224       C  0.23654692  0.92640220  0.50672030    -0.22200
H1225       H  0.29279621  0.98151299  0.53419818     0.19600
H1226       H  0.21533920  0.53261940  0.49675426     0.18400
H1227       H  0.26028556  0.60684156  0.51909114     0.14700
H1228       H  0.24742123  0.90688744  0.51181771     0.14500
H1229       H  0.31977481  0.56062755  0.55237812     0.32700
H1230       H  0.18331257  0.95097517  0.48031533     0.35400
C1231       C  0.02486240  0.75420816  0.50092413     0.21000
C1232       C  0.48318218  0.72193549  0.50451695    -0.38800
C1233       C  0.46126960  0.72549730  0.51861910     0.20000
C1234       C  0.47832371  0.75978300  0.52998587     0.22700
C1235       C  0.02061369  0.79109126  0.52688104    -0.39300
C1236       C  0.04238898  0.78775798  0.51270167     0.21500
N1237       N  0.05176974  0.75843684  0.48855763    -0.32600
C1238       C  0.08661662  0.79507591  0.49236042    -0.10200
C1239       C  0.08215809  0.81410299  0.50746427    -0.29000
N1240       N  0.45158818  0.75535223  0.54252851    -0.45600
C1241       C  0.41725946  0.71793339  0.53920785    -0.04900
C1242       C  0.42196620  0.69851882  0.52428223    -0.22200
H1243       H  0.46998700  0.69496872  0.49571233     0.19600
H1244       H  0.03429736  0.81725757  0.53613350     0.18400
H1245       H  0.10467199  0.84356152  0.51354685     0.14700
H1246       H  0.39992664  0.66839123  0.51859683     0.14500
H1247       H  0.04684404  0.73706818  0.47844988     0.32700
H1248       H  0.45627058  0.77693173  0.55250489     0.35400
C1249       C  0.83630765  0.17729245  0.54157348     0.46200
H1250       H  0.83573672  0.17833133  0.52685616    -0.02900
C1251       C  0.83759994  0.17414809  0.57595583     0.46200
H1252       H  0.83846175  0.17328375  0.59067264    -0.02900
C1253       C  0.88004143  0.20086114  0.54998334    -0.16600
C1254       C  0.81323891  0.19615193  0.55070102    -0.16300
C1255       C  0.81684753  0.13290843  0.54862138    -0.16700
C1256       C  0.88034867  0.19928246  0.56815283    -0.16700
C1257       C  0.81339009  0.19356157  0.56887020    -0.16200
C1258       C  0.81801169  0.13148920  0.56680377    -0.16500
C1259       C  0.66230510  0.33121448  0.45675656     0.46200
H1260       H  0.66155600  0.32991701  0.44201065    -0.02900
C1261       C  0.66379654  0.33323217  0.49122333     0.46200
H1262       H  0.66449651  0.33422968  0.50596459    -0.02900
C1263       C  0.68494207  0.31123164  0.46495011    -0.16600
C1264       C  0.68375861  0.37521922  0.46478190    -0.16300
C1265       C  0.61948303  0.30916636  0.46465418    -0.16700
C1266       C  0.68561936  0.31188325  0.48316130    -0.16700
C1267       C  0.68489063  0.37659856  0.48302918    -0.16200
C1268       C  0.61992281  0.31006576  0.48287742    -0.16500
O1269       O  0.58811293  0.24249302  0.69838232    -0.80200
O1270       O  0.68637151  0.38594372  0.64834920    -0.64900
O1271       O  0.65985423  0.30756330  0.68471512    -1.11500
C1272       C  0.62558428  0.39653312  0.71568595     1.06700
O1273       O  0.72290552  0.43612089  0.66809425    -0.78100
O1274       O  0.72132611  0.42902919  0.70391143    -0.65700
Ni1275     Ni  0.62646239  0.24970247  0.68022395     1.34900
C1276       C  0.72166800  0.40110344  0.71296767     0.85400
O1277       O  0.69154123  0.31705488  0.65076502    -0.78600
O1278       O  0.66287782  0.25306257  0.66205653    -0.88900
C1279       C  0.71256434  0.42360215  0.65205944     0.85000
O1280       O  0.58972009  0.24967614  0.66270388    -0.67100
O1281       O  0.64745304  0.42390977  0.70447378    -0.86400
C1282       C  0.59017566  0.27764579  0.65338850     0.85800
C1283       C  0.68571782  0.28042838  0.65103761     1.07400
H1284       H  0.62573326  0.36511830  0.67701479     0.39200
O1285       O  0.65182486  0.37009237  0.68168594    -1.09000
O1286       O  0.69357381  0.36314977  0.71187446    -0.65700
Ni1287     Ni  0.63993627  0.33296086  0.70053680     1.26300
O1288       O  0.61897052  0.31526353  0.65421534    -0.65900
O1289       O  0.62057046  0.36029445  0.71586979    -0.78200
C1290       C  0.59886280  0.25465325  0.71441692     0.85200
O1291       O  0.62606332  0.29199010  0.71810888    -0.65400
Ni1292     Ni  0.68421980  0.42805362  0.68626229     1.27400
Ni1293     Ni  0.67215569  0.34483955  0.66590554     1.26100
H1294       H  0.68578364  0.31208460  0.68938099     0.39800
C1295       C  0.97353237  0.00163169  0.79144835     0.46200
H1296       H  0.97130477  0.99956066  0.77672707    -0.02900
C1297       C  0.97750932  0.00486501  0.82590437     0.46200
H1298       H  0.97908222  0.00629492  0.84064703    -0.02900
C1299       C  0.99910862  0.48707190  0.79855913    -0.16600
C1300       C  0.99547717  0.04585476  0.79910791    -0.16300
C1301       C  0.93299929  0.48320918  0.79930555    -0.16700
C1302       C  0.00008845  0.48568707  0.81677557    -0.16700
C1303       C  0.99776671  0.04785393  0.81737922    -0.16200
C1304       C  0.93340478  0.48214743  0.81746900    -0.16500
C1305       C  0.64512829  0.34025298  0.87631547     0.46200
H1306       H  0.64301374  0.33872560  0.86158276    -0.02900
C1307       C  0.65015239  0.34371845  0.91077168     0.46200
H1308       H  0.65297582  0.34561535  0.92548522    -0.02900
C1309       C  0.62769247  0.29742065  0.88480577    -0.16600
C1310       C  0.68962089  0.36654620  0.88378906    -0.16300
C1311       C  0.62162554  0.35932589  0.88493887    -0.16700
C1312       C  0.63078121  0.29953947  0.90304193    -0.16700
C1313       C  0.69176100  0.36812608  0.90196926    -0.16200
C1314       C  0.62404231  0.36072605  0.90321379    -0.16500
C1315       C  0.85254012  0.16380320  0.15801001     0.46200
H1316       H  0.85170081  0.16282903  0.17272138    -0.02900
C1317       C  0.85467260  0.16766533  0.12362653     0.46200
H1318       H  0.85632917  0.16940555  0.10893768    -0.02900
C1319       C  0.87870353  0.14745067  0.14976207    -0.16600
C1320       C  0.80956975  0.13843730  0.14865563    -0.16300
C1321       C  0.87094489  0.20820133  0.15093258    -0.16700
C1322       C  0.87953799  0.14987903  0.13159548    -0.16700
C1323       C  0.81110222  0.14034086  0.13042485    -0.16200
C1324       C  0.87125351  0.20976887  0.13278712    -0.16500
C1325       C  0.53074908  0.50723271  0.20752005     0.46200
H1326       H  0.53139080  0.50903850  0.19282416    -0.02900
C1327       C  0.52790059  0.50149497  0.24186586     0.46200
H1328       H  0.52656142  0.49891822  0.25654423    -0.02900
C1329       C  0.56912784  0.02444132  0.21702758    -0.16600
C1330       C  0.50631318  0.02901542  0.21767441    -0.16300
C1331       C  0.50673210  0.46237656  0.21400956    -0.16700
C1332       C  0.56904320  0.02314397  0.23519587    -0.16700
C1333       C  0.50759493  0.02881135  0.23598964    -0.16200
C1334       C  0.50558301  0.45985561  0.23208895    -0.16500
O1335       O  0.78046645  0.07168139  0.36640738    -0.80200
O1336       O  0.87633228  0.21507792  0.31528556    -0.64900
O1337       O  0.85131654  0.13906050  0.35235499    -1.11500
C1338       C  0.81518371  0.22775502  0.38221878     1.06700
O1339       O  0.91270504  0.26776260  0.33402784    -0.78100
O1340       O  0.91321990  0.25929314  0.36960742    -0.65700
Ni1341     Ni  0.81914402  0.08084250  0.34794437     1.34900
C1342       C  0.91222105  0.23181659  0.37945915     0.85400
O1343       O  0.88486999  0.14902011  0.31851625    -0.78600
O1344       O  0.85594307  0.08501188  0.32955715    -0.88900
C1345       C  0.90230929  0.25294382  0.31827873     0.85000
O1346       O  0.78095161  0.08008908  0.33093927    -0.67100
O1347       O  0.83959995  0.25554336  0.37168405    -0.86400
C1348       C  0.78141283  0.10754422  0.32123815     0.85800
C1349       C  0.87967462  0.11273221  0.31882183     1.07400
H1350       H  0.81631555  0.19595005  0.34336355     0.39200
O1351       O  0.84213616  0.20090808  0.34835581    -1.09000
O1352       O  0.88235356  0.19470372  0.37947867    -0.65700
Ni1353     Ni  0.82958664  0.16410724  0.36742236     1.26300
O1354       O  0.81087460  0.14478763  0.32133178    -0.65900
O1355       O  0.80809522  0.19074333  0.38198726    -0.78200
C1356       C  0.78963199  0.08649524  0.38220040     0.85200
O1357       O  0.81574795  0.12432669  0.38530776    -0.65400
Ni1358     Ni  0.87500898  0.25910492  0.35285168     1.27400
Ni1359     Ni  0.86352496  0.17566883  0.33320926     1.26100
H1360       H  0.87727096  0.14437183  0.35734477     0.39800
O1361       O  0.55295537  0.10194308  0.00166997    -0.80200
O1362       O  0.98921724  0.45383684  0.04941116    -0.64900
O1363       O  0.53586072  0.02493691  0.01414827    -1.11500
C1364       C  0.91563171  0.46325716  0.98191803     1.06700
O1365       O  0.93976981  0.40159303  0.03289006    -0.78100
O1366       O  0.98111646  0.42462979  0.00059739    -0.65700
Ni1367     Ni  0.56616469  0.08133346  0.02226932     1.34900
C1368       C  0.50213254  0.44936840  0.98809482     0.85400
O1369       O  0.56201902  0.00126357  0.04393935    -0.78600
O1370       O  0.58658786  0.06920308  0.04335644    -0.88900
C1371       C  0.95924955  0.41684675  0.04757196     0.85000
O1372       O  0.52028274  0.07718341  0.03419657    -0.67100
O1373       O  0.91847371  0.43303184  0.98736970    -0.86400
C1374       C  0.00619489  0.06772942  0.04779208     0.85800
C1375       C  0.58815659  0.03820666  0.04873422     1.07400
H1376       H  0.94674002  0.48413490  0.02528017     0.39200
O1377       O  0.96456698  0.47790093  0.01857455    -1.09000
O1378       O  0.49952430  0.48132676  0.98558636    -0.65700
Ni1379     Ni  0.98765814  0.01466020  0.00124210     1.26300
O1380       O  0.99574346  0.02994382  0.04689305    -0.65900
O1381       O  0.93818976  0.49961584  0.98827068    -0.78200
C1382       C  0.53822650  0.08703950  0.98630818     0.85200
O1383       O  0.51278735  0.04886041  0.98342050    -0.65400
Ni1384     Ni  0.93324912  0.42148365  0.01035869     1.27400
Ni1385     Ni  0.51443302  0.49679274  0.03277012     1.26100
H1386       H  0.55396494  0.01930782  0.00730794     0.39800
C1387       C  0.71169379  0.09640528  0.28630588     0.21000
C1388       C  0.69854631  0.10739083  0.27092251    -0.38800
C1389       C  0.66182487  0.07588944  0.26290922     0.20000
C1390       C  0.63995256  0.03668048  0.26982352     0.22700
C1391       C  0.65309386  0.02571752  0.28513507    -0.39300
C1392       C  0.68979753  0.05704813  0.29305956     0.21500
N1393       N  0.74632693  0.12006952  0.29599856    -0.32600
C1394       C  0.74659381  0.09535218  0.30884459    -0.10200
C1395       C  0.71165413  0.05594391  0.30753254    -0.29000
N1396       N  0.60533840  0.01276818  0.26026950    -0.45600
C1397       C  0.60508769  0.03667886  0.24710984    -0.04900
C1398       C  0.63983147  0.07633841  0.24824085    -0.22200
H1399       H  0.71566518  0.13809607  0.26558032     0.19600
H1400       H  0.63602284  0.99498365  0.29045686     0.18400
H1401       H  0.70408592  0.02959881  0.31564681     0.14700
H1402       H  0.64697308  0.10232860  0.23996870     0.14500
H1403       H  0.76912538  0.15058992  0.29360158     0.32700
H1404       H  0.58209462  0.48545472  0.26458857     0.35400
C1405       C  0.98952725  0.38148790  0.26487089     0.21000
C1406       C  0.99824018  0.36680885  0.28028179    -0.38800
C1407       C  0.96510705  0.33113219  0.28711511     0.20000
C1408       C  0.92652354  0.31082292  0.27888965     0.22700
C1409       C  0.91777880  0.32560604  0.26345564    -0.39300
C1410       C  0.95073443  0.36200096  0.25686281     0.21500
N1411       N  0.50774293  0.40680553  0.25028896    -0.32600
C1412       C  0.99163860  0.42112727  0.24421750    -0.10200
C1413       C  0.95167036  0.38704631  0.24347075    -0.29000
N1414       N  0.89973790  0.27903600  0.28861786    -0.45600
C1415       C  0.92125580  0.27991711  0.30328455    -0.04900
C1416       C  0.96210749  0.31187131  0.30285730    -0.22200
H1417       H  0.52004807  0.35884421  0.27469456     0.19600
H1418       H  0.88714619  0.31098648  0.25753437     0.18400
H1419       H  0.92624485  0.38256477  0.23505755     0.14700
H1420       H  0.98591825  0.32065457  0.31297254     0.14500
H1421       H  0.53916113  0.41776477  0.24932735     0.32700
H1422       H  0.86826089  0.25946931  0.28598362     0.35400
C1423       C  0.93647554  0.10191083  0.28349572     0.21000
C1424       C  0.95709201  0.11047929  0.26729106    -0.38800
C1425       C  0.96947528  0.08264634  0.26186819     0.20000
C1426       C  0.96189559  0.04910150  0.27187433     0.22700
C1427       C  0.94165927  0.04069913  0.28806310    -0.39300
C1428       C  0.92910225  0.06822841  0.29340298     0.21500
N1429       N  0.92038753  0.12267677  0.29135011    -0.32600
C1430       C  0.90239268  0.10173565  0.30625913    -0.10200
C1431       C  0.90732913  0.06768392  0.30796222    -0.29000
N1432       N  0.97510331  0.02641582  0.26364734    -0.45600
C1433       C  0.99086316  0.04494330  0.24805137    -0.04900
C1434       C  0.98880379  0.08090873  0.24670051    -0.22200
H1435       H  0.96241862  0.13640549  0.25934841     0.19600
H1436       H  0.93539892  0.01413329  0.29576679     0.18400
H1437       H  0.89610787  0.04527235  0.31838888     0.14700
H1438       H  0.99965717  0.10274149  0.23606426     0.14500
H1439       H  0.92085449  0.14889006  0.28668090     0.32700
H1440       H  0.48523324  0.01271957  0.27205677     0.35400
C1441       C  0.88452873  0.28808896  0.10264276     0.21000
C1442       C  0.87268994  0.30456942  0.08878110    -0.38800
C1443       C  0.90467895  0.33943260  0.08076294     0.20000
C1444       C  0.94537439  0.35727934  0.08637186     0.22700
C1445       C  0.95720580  0.34071289  0.10029075    -0.39300
C1446       C  0.92521610  0.30528127  0.10813543     0.21500
N1447       N  0.86029498  0.25315065  0.11131637    -0.32600
C1448       C  0.88553177  0.24764093  0.12233886    -0.10200
C1449       C  0.92631694  0.27965090  0.12084305    -0.29000
N1450       N  0.97013151  0.38862130  0.07579862    -0.45600
C1451       C  0.94505804  0.38988736  0.06311241    -0.04900
C1452       C  0.90403029  0.35992292  0.06588783    -0.22200
H1453       H  0.84105958  0.29017291  0.08405867     0.19600
H1454       H  0.98912456  0.35350188  0.10425365     0.18400
H1455       H  0.95322845  0.28258546  0.12749051     0.14700
H1456       H  0.87745515  0.35306073  0.05770137     0.14500
H1457       H  0.82852933  0.23380560  0.10962362     0.32700
H1458       H  0.48156336  0.35237367  0.05287032     0.35400
C1459       C  0.71807911  0.07815663  0.10413020     0.21000
C1460       C  0.67840527  0.04497613  0.09936371    -0.38800
C1461       C  0.66129160  0.04939721  0.08339261     0.20000
C1462       C  0.68239877  0.08422796  0.07321691     0.22700
C1463       C  0.72177585  0.11665545  0.07780497    -0.39300
C1464       C  0.73855630  0.11225434  0.09356431     0.21500
N1465       N  0.74093023  0.08304222  0.11887907    -0.32600
C1466       C  0.77575204  0.12078630  0.11753938    -0.10200
C1467       C  0.77528220  0.13927421  0.10179114    -0.29000
N1468       N  0.65919114  0.08317611  0.05951444    -0.45600
C1469       C  0.62280072  0.04743321  0.06067812    -0.04900
C1470       C  0.62278226  0.02495695  0.07529695    -0.22200
H1471       H  0.66176861  0.01839766  0.10764684     0.19600
H1472       H  0.73777692  0.14401999  0.06989628     0.18400
H1473       H  0.79849764  0.16889218  0.09694539     0.14700
H1474       H  0.59744657  0.99614518  0.07991073     0.14500
H1475       H  0.73341291  0.06201281  0.12906224     0.32700
H1476       H  0.66724479  0.10616121  0.05016437     0.35400
C1477       C  0.93577044  0.13711580  0.09751196     0.21000
C1478       C  0.96099421  0.14870417  0.08278083    -0.38800
C1479       C  0.96659320  0.11780982  0.07534898     0.20000
C1480       C  0.94804857  0.07821956  0.08192551     0.22700
C1481       C  0.92273073  0.06659429  0.09669828    -0.39300
C1482       C  0.91756698  0.09773411  0.10430660     0.21500
N1483       N  0.92545041  0.16080471  0.10681384    -0.32600
C1484       C  0.90101514  0.13656723  0.11974436    -0.10200
C1485       C  0.89506302  0.09690262  0.11863852    -0.29000
N1486       N  0.95901362  0.05488295  0.07264771    -0.45600
C1487       C  0.98505047  0.08009299  0.06027218    -0.04900
C1488       C  0.99038581  0.11948026  0.06147279    -0.22200
H1489       H  0.97547411  0.17959746  0.07759502     0.19600
H1490       H  0.90845319  0.03578243  0.10195409     0.18400
H1491       H  0.87592283  0.07084512  0.12684141     0.14700
H1492       H  0.48487187  0.11987235  0.04654797     0.14500
H1493       H  0.93399140  0.19142251  0.10440797     0.32700
H1494       H  0.95018368  0.02412286  0.07487458     0.35400
C1495       C  0.97595989  0.08299025  0.18658796     0.21000
C1496       C  0.97885263  0.10719012  0.17200104    -0.38800
C1497       C  0.94644494  0.11492208  0.16968940     0.20000
C1498       C  0.91388659  0.10007729  0.18112084     0.22700
C1499       C  0.91096694  0.07583485  0.19567298    -0.39300
C1500       C  0.94310917  0.06773745  0.19787424     0.21500
N1501       N  0.50092105  0.06824626  0.19249542    -0.32600
C1502       C  0.98699155  0.04863370  0.20645445    -0.10200
C1503       C  0.94931611  0.04504146  0.21042835    -0.29000
N1504       N  0.88654867  0.11077316  0.17578849    -0.45600
C1505       C  0.90120345  0.13196884  0.16062224    -0.04900
C1506       C  0.93897334  0.13569905  0.15659523    -0.22200
H1507       H  0.50348807  0.11608296  0.16408510     0.19600
H1508       H  0.88531958  0.06380223  0.20454475     0.18400
H1509       H  0.92917821  0.02823304  0.22113697     0.14700
H1510       H  0.95834022  0.15115730  0.14549845     0.14500
H1511       H  0.53007229  0.07862349  0.18742932     0.32700
H1512       H  0.85883646  0.10283785  0.18178094     0.35400
C1513       C  0.72722548  0.08487279  0.17896742     0.21000
C1514       C  0.70753503  0.06259488  0.19412656    -0.38800
C1515       C  0.66749491  0.05490851  0.19660796     0.20000
C1516       C  0.64848685  0.06809011  0.18483765     0.22700
C1517       C  0.66805606  0.09010541  0.16967074    -0.39300
C1518       C  0.70807552  0.09801860  0.16725403     0.21500
N1519       N  0.76573739  0.09740521  0.17385558    -0.32600
C1520       C  0.77089843  0.11828221  0.15868294    -0.10200
C1521       C  0.73570975  0.11969039  0.15430726    -0.29000
N1522       N  0.61108443  0.05824224  0.19045896    -0.45600
C1523       C  0.60625703  0.03916394  0.20609098    -0.04900
C1524       C  0.64064641  0.03590937  0.21020382    -0.22200
H1525       H  0.72254014  0.05270145  0.20346805     0.19600
H1526       H  0.65344696  0.10091052  0.16056781     0.18400
H1527       H  0.73117566  0.13519653  0.14331192     0.14700
H1528       H  0.65097661  0.52605753  0.22119651     0.14500
H1529       H  0.78714516  0.09206401  0.18026094     0.32700
H1530       H  0.59061168  0.06524819  0.18429144     0.35400
C1531       C  0.93097497  0.29492190  0.18024763     0.21000
C1532       C  0.96330274  0.32008659  0.19226392    -0.38800
C1533       C  0.97095616  0.36044386  0.19499855     0.20000
C1534       C  0.94822955  0.37471211  0.18642378     0.22700
C1535       C  0.91594072  0.34955178  0.17440535    -0.39300
C1536       C  0.90833392  0.30925310  0.17164876     0.21500
N1537       N  0.91854973  0.25594313  0.17483029    -0.32600
C1538       C  0.88822229  0.24568639  0.16251366    -0.10200
C1539       C  0.88073204  0.27799603  0.16030422    -0.29000
N1540       N  0.96040330  0.41359465  0.19190686    -0.45600
C1541       C  0.99070283  0.42396232  0.20424335    -0.04900
C1542       C  0.50654107  0.41498856  0.18961245    -0.22200
H1543       H  0.50916879  0.35651633  0.16545264     0.19600
H1544       H  0.89806808  0.36054670  0.16767309     0.18400
H1545       H  0.85927644  0.27912545  0.15103267     0.14700
H1546       H  0.53869236  0.43257809  0.18625097     0.14500
H1547       H  0.93143376  0.23827643  0.17849394     0.32700
H1548       H  0.94728164  0.43107584  0.18829909     0.35400
C1549       C  0.77781205  0.42558104  0.93165824     0.21000
C1550       C  0.80189058  0.45496467  0.94499309    -0.38800
C1551       C  0.83548033  0.45266802  0.95160682     0.20000
C1552       C  0.84396095  0.42301681  0.94548712     0.22700
C1553       C  0.82046036  0.39427227  0.93192491    -0.39300
C1554       C  0.78721759  0.39682039  0.92522367     0.21500
N1555       N  0.74269042  0.41931990  0.92406901    -0.32600
C1556       C  0.73026018  0.38683250  0.91259352    -0.10200
C1557       C  0.75716369  0.37199202  0.91286701    -0.29000
N1558       N  0.87465612  0.42435119  0.95511255    -0.45600
C1559       C  0.88615172  0.45524746  0.96736524    -0.04900
C1560       C  0.86285788  0.47412865  0.96548290    -0.22200
H1561       H  0.79420626  0.47700473  0.95025256     0.19600
H1562       H  0.82672795  0.37069139  0.92736958     0.18400
H1563       H  0.75421610  0.34569219  0.90547966     0.14700
H1564       H  0.86386161  0.49818688  0.97390048     0.14500
H1565       H  0.72776452  0.43564462  0.92665913     0.32700
H1566       H  0.88611450  0.40444381  0.95385353     0.35400
C1567       C  0.59092562  0.17313900  0.95815705     0.21000
C1568       C  0.62151203  0.21346301  0.95409555    -0.38800
C1569       C  0.61596857  0.22800575  0.93796146     0.20000
C1570       C  0.58247729  0.20426934  0.92669545     0.22700
C1571       C  0.55202861  0.16350955  0.93066948    -0.39300
C1572       C  0.55761333  0.14878257  0.94687585     0.21500
N1573       N  0.58801372  0.15361466  0.97323008    -0.32600
C1574       C  0.55269099  0.11640436  0.97171385    -0.10200
C1575       C  0.53296292  0.11181988  0.95530874    -0.29000
N1576       N  0.58333495  0.22629478  0.91264371    -0.45600
C1577       C  0.61794682  0.26406972  0.91491662    -0.04900
C1578       C  0.63890353  0.26624830  0.93061840    -0.22200
H1579       H  0.64717859  0.23253702  0.96309355     0.19600
H1580       H  0.52550732  0.14505344  0.92200311     0.18400
H1581       H  0.50386139  0.08589310  0.95055405     0.14700
H1582       H  0.66692575  0.29251544  0.93606181     0.14500
H1583       H  0.60857342  0.16530595  0.98410144     0.32700
H1584       H  0.56094910  0.21663279  0.90252964     0.35400
C1585       C  0.55531430  0.43687480  0.95183549     0.21000
C1586       C  0.57245516  0.44320200  0.93487290    -0.38800
C1587       C  0.58332723  0.41435048  0.92916968     0.20000
C1588       C  0.57729490  0.38184336  0.93958457     0.22700
C1589       C  0.56051857  0.37572364  0.95646891    -0.39300
C1590       C  0.54985708  0.40442401  0.96215770     0.21500
N1591       N  0.54056452  0.45844252  0.96006462    -0.32600
C1592       C  0.52546084  0.43919701  0.97562584    -0.10200
C1593       C  0.53112715  0.40569127  0.97742388    -0.29000
N1594       N  0.58989003  0.35866160  0.93135772    -0.45600
C1595       C  0.60432609  0.37622034  0.91551460    -0.04900
C1596       C  0.60102413  0.41138634  0.91368586    -0.22200
H1597       H  0.57663838  0.46838585  0.92668471     0.19600
H1598       H  0.55571899  0.35014380  0.96453635     0.18400
H1599       H  0.52124483  0.38405755  0.98814113     0.14700
H1600       H  0.61119298  0.43255471  0.90279909     0.14500
H1601       H  0.53937676  0.48358746  0.95511681     0.32700
H1602       H  0.58880725  0.33236557  0.93631251     0.35400
C1603       C  0.52944301  0.42761404  0.84767507     0.21000
C1604       C  0.52411604  0.40088338  0.86154524    -0.38800
C1605       C  0.55627142  0.39310332  0.86435240     0.20000
C1606       C  0.59099453  0.41057179  0.85409534     0.22700
C1607       C  0.59621294  0.43709208  0.84017592    -0.39300
C1608       C  0.56408157  0.44484579  0.83737286     0.21500
N1609       N  0.50337282  0.43981198  0.84228774    -0.32600
C1610       C  0.52119468  0.46446268  0.82828150    -0.10200
C1611       C  0.55934595  0.46866701  0.82494516    -0.29000
N1612       N  0.61772833  0.39957081  0.85981706    -0.45600
C1613       C  0.60033323  0.37547150  0.87400509    -0.04900
C1614       C  0.56157427  0.37006657  0.87704343    -0.22200
H1615       H  0.49710889  0.38744160  0.86965561     0.19600
H1616       H  0.62341209  0.45087295  0.83218041     0.18400
H1617       H  0.58176148  0.98737593  0.81451461     0.14700
H1618       H  0.54062756  0.35258923  0.88741986     0.14500
H1619       H  0.97848868  0.44055347  0.84848030     0.32700
H1620       H  0.64677388  0.40913312  0.85480422     0.35400
C1621       C  0.56991155  0.21029072  0.85503213     0.21000
C1622       C  0.54029796  0.18640912  0.84177153    -0.38800
C1623       C  0.53390925  0.14670805  0.83845683     0.20000
C1624       C  0.55533112  0.13185002  0.84767292     0.22700
C1625       C  0.58488378  0.15569596  0.86099137    -0.39300
C1626       C  0.59129309  0.19545918  0.86429814     0.21500
N1627       N  0.58122864  0.24877601  0.86077231    -0.32600
C1628       C  0.60958162  0.25844286  0.87397937    -0.10200
C1629       C  0.61707873  0.22610406  0.87641568    -0.29000
N1630       N  0.54441904  0.09362789  0.84166907    -0.45600
C1631       C  0.51634366  0.08432678  0.82835856    -0.04900
C1632       C  0.50848918  0.11643143  0.82616203    -0.22200
H1633       H  0.52359934  0.19798809  0.83449568     0.19600
H1634       H  0.60172956  0.14419053  0.86820626     0.18400
H1635       H  0.63791827  0.22486013  0.88600996     0.14700
H1636       H  0.98911566  0.12077412  0.81521013     0.14500
H1637       H  0.56944806  0.26692433  0.85637663     0.32700
H1638       H  0.55634418  0.07550000  0.84592015     0.35400
C1639       C  0.76972055  0.39641383  0.85220656     0.21000
C1640       C  0.78968848  0.39113285  0.83773687    -0.38800
C1641       C  0.83114490  0.42200117  0.83591715     0.20000
C1642       C  0.85133791  0.45554954  0.84760712     0.22700
C1643       C  0.83131536  0.46096225  0.86202426    -0.39300
C1644       C  0.78983277  0.43009556  0.86383279     0.21500
N1645       N  0.73093363  0.37051466  0.85732365    -0.32600
C1646       C  0.72645023  0.38748671  0.87248508    -0.10200
C1647       C  0.76239254  0.42510811  0.87672723    -0.29000
N1648       N  0.89067562  0.48046943  0.84293038    -0.45600
C1649       C  0.89540311  0.46293613  0.82800555    -0.04900
C1650       C  0.85898027  0.42621729  0.82335730    -0.22200
H1651       H  0.77419988  0.36476732  0.82863766     0.19600
H1652       H  0.84698631  0.48700529  0.87127718     0.18400
H1653       H  0.76822204  0.44564245  0.88800948     0.14700
H1654       H  0.85342891  0.40532313  0.81226413     0.14500
H1655       H  0.70951264  0.34209189  0.85135408     0.32700
H1656       H  0.91297797  0.01116143  0.84881430     0.35400
C1657       C  0.84925750  0.43257568  0.76812033     0.21000
C1658       C  0.82275863  0.40164194  0.75583072    -0.38800
C1659       C  0.79853163  0.41137895  0.74511447     0.20000
C1660       C  0.80093013  0.44928388  0.74637268     0.22700
C1661       C  0.82700780  0.48005706  0.75885662    -0.39300
C1662       C  0.85095073  0.47012505  0.76971622     0.21500
N1663       N  0.87702178  0.43173805  0.77909392    -0.32600
C1664       C  0.89604202  0.46871062  0.78791119    -0.10200
C1665       C  0.88079712  0.49359583  0.78244329    -0.29000
N1666       N  0.77508297  0.45100296  0.73451643    -0.45600
C1667       C  0.75559583  0.41365496  0.72590055    -0.04900
C1668       C  0.76934219  0.38808090  0.73214911    -0.22200
H1669       H  0.82138677  0.37228272  0.75459206     0.19600
H1670       H  0.83438659  0.00897811  0.75772641     0.18400
H1671       H  0.89421835  0.02359170  0.78540283     0.14700
H1672       H  0.75897336  0.35655825  0.72792788     0.14500
H1673       H  0.88373381  0.40816213  0.78008679     0.32700
H1674       H  0.76993370  0.47548750  0.73281587     0.35400
C1675       C  0.57130711  0.19342854  0.75316130     0.21000
C1676       C  0.57747400  0.18178307  0.77001549    -0.38800
C1677       C  0.54876880  0.14112339  0.77472889     0.20000
C1678       C  0.51634786  0.11433968  0.76354360     0.22700
C1679       C  0.51039520  0.12574291  0.74664571    -0.39300
C1680       C  0.53920198  0.16621705  0.74189612     0.21500
N1681       N  0.59553152  0.22946698  0.74515609    -0.32600
C1682       C  0.57906313  0.22478669  0.72859350    -0.10200
C1683       C  0.54379508  0.18584439  0.72611552    -0.29000
N1684       N  0.99308091  0.07810771  0.77093782    -0.45600
C1685       C  0.51184110  0.08024271  0.78700147    -0.04900
C1686       C  0.54663314  0.11958096  0.78972525    -0.22200
H1687       H  0.60314453  0.20257501  0.77867818     0.19600
H1688       H  0.48566470  0.10437617  0.73770793     0.18400
H1689       H  0.52510206  0.17299414  0.71411334     0.14700
H1690       H  0.56821241  0.13068096  0.80087838     0.14500
H1691       H  0.62274528  0.25478778  0.75029128     0.32700
H1692       H  0.96590630  0.05299368  0.76566660     0.35400
C1693       C  0.54151203  0.43244764  0.77363785     0.21000
C1694       C  0.54696887  0.40007849  0.76764432    -0.38800
C1695       C  0.57090105  0.40821608  0.75248006     0.20000
C1696       C  0.58798786  0.44571717  0.74404822     0.22700
C1697       C  0.58246206  0.47787454  0.74997516    -0.39300
C1698       C  0.55856737  0.46971910  0.76501859     0.21500
N1699       N  0.51941564  0.43245170  0.78747222    -0.32600
C1700       C  0.52259365  0.46999877  0.78749044    -0.10200
C1701       C  0.54654503  0.49391621  0.77367754    -0.29000
N1702       N  0.60919036  0.44593012  0.72993864    -0.45600
C1703       C  0.60564562  0.40828009  0.72923809    -0.04900
C1704       C  0.58201819  0.38378485  0.74310847    -0.22200
H1705       H  0.02953152  0.37299696  0.77334922     0.19600
H1706       H  0.58780514  0.99888370  0.74093074     0.18400
H1707       H  0.54798237  0.01845225  0.76792970     0.14700
H1708       H  0.57419983  0.35252144  0.74596305     0.14500
H1709       H  0.99921615  0.41130651  0.79494192     0.32700
H1710       H  0.62516910  0.47032646  0.72131019     0.35400
C1711       C  0.74405897  0.29724297  0.43224956     0.21000
C1712       C  0.77093682  0.30900230  0.41806814    -0.38800
C1713       C  0.77674870  0.27805224  0.41079926     0.20000
C1714       C  0.75717089  0.23817879  0.41705570     0.22700
C1715       C  0.73024819  0.22637399  0.43139477    -0.39300
C1716       C  0.72464659  0.25762964  0.43882459     0.21500
N1717       N  0.73283838  0.32095164  0.44101767    -0.32600
C1718       C  0.70648267  0.29671670  0.45346909    -0.10200
C1719       C  0.70045421  0.25687134  0.45259816    -0.29000
N1720       N  0.76794595  0.21463187  0.40763015    -0.45600
C1721       C  0.79460628  0.23995584  0.39537672    -0.04900
C1722       C  0.80076656  0.27967347  0.39700151    -0.22200
H1723       H  0.78609903  0.34002557  0.41299726     0.19600
H1724       H  0.71477506  0.19524604  0.43634976     0.18400
H1725       H  0.68023705  0.23075433  0.46055552     0.14700
H1726       H  0.82035792  0.30628287  0.38915146     0.14500
H1727       H  0.74221104  0.35177209  0.43858918     0.32700
H1728       H  0.75796559  0.18345369  0.40945589     0.35400
C1729       C  0.98860451  0.24137827  0.41071841     0.21000
C1730       C  0.50077043  0.22925760  0.42259898    -0.38800
C1731       C  0.53191748  0.25921086  0.43388752     0.20000
C1732       C  0.54225446  0.30021598  0.43416346     0.22700
C1733       C  0.52296372  0.31470302  0.42278445    -0.39300
C1734       C  0.49215207  0.28482533  0.41133184     0.21500
N1735       N  0.95869871  0.21861634  0.39854278    -0.32600
C1736       C  0.94677013  0.24435985  0.39204129    -0.10200
C1737       C  0.96906780  0.28357089  0.40003928    -0.29000
N1738       N  0.57325155  0.32257670  0.44589420    -0.45600
C1739       C  0.58279579  0.29570272  0.45309203    -0.04900
C1740       C  0.55812653  0.25600047  0.44575233    -0.22200
H1741       H  0.49259099  0.19716982  0.42245221     0.19600
H1742       H  0.53147689  0.34688555  0.42278226     0.18400
H1743       H  0.96522088  0.30977781  0.39792731     0.14700
H1744       H  0.56003730  0.22883055  0.44833549     0.14500
H1745       H  0.94669295  0.18746080  0.39508433     0.32700
H1746       H  0.58800664  0.35443706  0.44845093     0.35400
C1747       C  0.73820833  0.47130209  0.44206260     0.21000
C1748       C  0.76936907  0.51224658  0.43887514    -0.38800
C1749       C  0.76035195  0.02913511  0.42277873     0.20000
C1750       C  0.72846890  0.00409784  0.41094747     0.22700
C1751       C  0.70270761  0.46431961  0.41385088    -0.39300
C1752       C  0.70613361  0.44862200  0.43000812     0.21500
N1753       N  0.73490206  0.44832811  0.45613507    -0.32600
C1754       C  0.69997528  0.41116687  0.45304952    -0.10200
C1755       C  0.68158145  0.41021384  0.43680090    -0.29000
N1756       N  0.73380526  0.02226796  0.39524280    -0.45600
C1757       C  0.76927288  0.05922338  0.39706325    -0.04900
C1758       C  0.78640480  0.06499519  0.41412639    -0.22200
H1759       H  0.79488312  0.52992802  0.44812937     0.19600
H1760       H  0.67815143  0.44595690  0.40426725     0.18400
H1761       H  0.65390497  0.38478919  0.43070216     0.14700
H1762       H  0.81561825  0.09049188  0.41903779     0.14500
H1763       H  0.75571641  0.45711685  0.46684609     0.32700
H1764       H  0.71554877  0.00946722  0.38373915     0.35400
C1765       C  0.77127876  0.24326922  0.59441702     0.21000
C1766       C  0.76326897  0.27444078  0.59942746    -0.38800
C1767       C  0.74037448  0.26716712  0.61481379     0.20000
C1768       C  0.72641394  0.23146290  0.62437937     0.22700
C1769       C  0.73445733  0.20034631  0.61940920    -0.39300
C1770       C  0.75745383  0.20772720  0.60409025     0.21500
N1771       N  0.79280925  0.24295866  0.58046639    -0.32600
C1772       C  0.79233878  0.20680244  0.58126412    -0.10200
C1773       C  0.77093785  0.18420436  0.59587923    -0.29000
N1774       N  0.70538131  0.23189695  0.63844618    -0.45600
C1775       C  0.70610422  0.26823286  0.63792772    -0.04900
C1776       C  0.72762315  0.29112562  0.62336608    -0.22200
H1777       H  0.77418775  0.30233603  0.59194439     0.19600
H1778       H  0.72376383  0.17255340  0.62695408     0.18400
H1779       H  0.76592253  0.15451008  0.59991121     0.14700
H1780       H  0.73297425  0.32104107  0.61951812     0.14500
H1781       H  0.80758212  0.26623901  0.57124430     0.32700
H1782       H  0.69147402  0.20888253  0.64785304     0.35400
C1783       C  0.95774235  0.21152476  0.59913926     0.21300
C1784       C  0.97715036  0.19811169  0.61093853    -0.38800
C1785       C  0.50689027  0.22822542  0.62087169     0.20000
C1786       C  0.51600439  0.26886334  0.62117449     0.22700
C1787       C  0.99854756  0.28326004  0.60988659    -0.39300
C1788       C  0.96753863  0.25234054  0.59883893     0.21500
N1789       N  0.92724641  0.18817524  0.58738760    -0.32600
C1790       C  0.91721681  0.21412857  0.57966253    -0.10200
C1791       C  0.94120343  0.25430530  0.58663125    -0.29000
N1792       N  0.54648638  0.29180019  0.63305335    -0.45600
C1793       C  0.55627358  0.26530360  0.64049128    -0.04900
C1794       C  0.53212518  0.22539110  0.63330295    -0.22200
H1795       H  0.47039929  0.16632875  0.60896535     0.19600
H1796       H  0.00653784  0.31525811  0.60948800     0.18400
H1797       H  0.93865868  0.28094252  0.58364378     0.14700
H1798       H  0.53379846  0.19828212  0.63635611     0.14500
H1799       H  0.91336027  0.15632387  0.58505228     0.32700
H1800       H  0.55997782  0.32346623  0.63583385     0.35400
C1801       C  0.79911260  0.05738581  0.60006316     0.21000
C1802       C  0.80514876  0.04516165  0.61671737    -0.38800
C1803       C  0.77332175  0.51083741  0.62416307     0.20000
C1804       C  0.73988143  0.98072557  0.61138561     0.22700
C1805       C  0.73377301  0.99307686  0.59461188    -0.39300
C1806       C  0.76479160  0.03256617  0.58938492     0.21500
N1807       N  0.82256337  0.09447187  0.59293320    -0.32600
C1808       C  0.80345102  0.09388530  0.57753205    -0.10200
C1809       C  0.76713604  0.05558770  0.57480377    -0.29000
N1810       N  0.71370055  0.45016103  0.62179273    -0.45600
C1811       C  0.73189956  0.45340716  0.63783885    -0.04900
C1812       C  0.76910317  0.49079229  0.63978497    -0.22200
H1813       H  0.83132198  0.06534355  0.62527946     0.19600
H1814       H  0.70628817  0.97405364  0.58654260     0.18400
H1815       H  0.74441053  0.04664755  0.56418316     0.14700
H1816       H  0.78972525  0.50220533  0.65128117     0.14500
H1817       H  0.84927411  0.11927063  0.59865783     0.32700
H1818       H  0.68507693  0.42613983  0.61712768     0.35400
C1819       C  0.75171400  0.23451553  0.53189673     0.21000
C1820       C  0.71751336  0.23940249  0.52989808    -0.38800
C1821       C  0.71849960  0.26327751  0.51557186     0.20000
C1822       C  0.75106830  0.28093167  0.50410455     0.22700
C1823       C  0.78553013  0.27650674  0.50624102    -0.39300
C1824       C  0.78445859  0.25247760  0.52053172     0.21500
N1825       N  0.75745331  0.21203220  0.54404601    -0.32600
C1826       C  0.79427258  0.21586490  0.54048255    -0.10200
C1827       C  0.81192142  0.24072665  0.52585582    -0.29000
N1828       N  0.74381519  0.30069130  0.49113427    -0.45600
C1829       C  0.70632246  0.29554992  0.49436091    -0.04900
C1830       C  0.68981156  0.27280973  0.50960232    -0.22200
H1831       H  0.69170946  0.22508265  0.53867624     0.19600
H1832       H  0.81090337  0.29004029  0.49721863     0.18400
H1833       H  0.84098456  0.24908836  0.51993867     0.14700
H1834       H  0.66027674  0.26356256  0.51525216     0.14500
H1835       H  0.73705145  0.19439971  0.55387052     0.32700
H1836       H  0.76331825  0.31684200  0.48080748     0.35400
C1837       C  0.78295227  0.03443682  0.52786773     0.21000
C1838       C  0.77278738  0.48983092  0.52687508    -0.38800
C1839       C  0.74451224  0.46440562  0.51348083     0.20000
C1840       C  0.72481089  0.47823331  0.50243996     0.22700
C1841       C  0.72746563  0.01753305  0.50637871    -0.39300
C1842       C  0.75844849  0.04523080  0.51836264     0.21500
N1843       N  0.80874794  0.06541436  0.53900422    -0.32600
C1844       C  0.80019452  0.09590215  0.53681104    -0.10200
C1845       C  0.76955025  0.08486626  0.52380723    -0.29000
N1846       N  0.69977405  0.44829161  0.49066056    -0.45600
C1847       C  0.70400120  0.41532792  0.49403774    -0.04900
C1848       C  0.73118335  0.42399768  0.50835050    -0.22200
H1849       H  0.78801347  0.47890921  0.53556104     0.19600
H1850       H  0.70826867  0.02591079  0.49894510     0.18400
H1851       H  0.75546505  0.10234803  0.51977938     0.14700
H1852       H  0.74103859  0.40395304  0.51379757     0.14500
H1853       H  0.82970501  0.06518212  0.54808661     0.32700
H1854       H  0.68141262  0.45038594  0.48075620     0.35400
C1855       C  0.52043055  0.25372187  0.50224646     0.21000
C1856       C  0.98337529  0.22224573  0.50476139    -0.38800
C1857       C  0.96179781  0.22578048  0.51897221     0.20000
C1858       C  0.97997766  0.25850988  0.53114730     0.22700
C1859       C  0.51805142  0.28962652  0.52898965    -0.39300
C1860       C  0.53911383  0.28633864  0.51446400     0.21500
N1861       N  0.54677727  0.25766268  0.48964360    -0.32600
C1862       C  0.58251352  0.29327168  0.49368401    -0.10200
C1863       C  0.57909183  0.31182428  0.50922085    -0.29000
N1864       N  0.95297041  0.25469607  0.54340513    -0.45600
C1865       C  0.91748038  0.21894306  0.53919715    -0.04900
C1866       C  0.92162938  0.20031907  0.52388026    -0.22200
H1867       H  0.96907087  0.19678511  0.49516714     0.19600
H1868       H  0.53264220  0.31505867  0.53859035     0.18400
H1869       H  0.60245364  0.34045741  0.51560945     0.14700
H1870       H  0.89870451  0.17141974  0.51752136     0.14500
H1871       H  0.54084715  0.23662637  0.47925233     0.32700
H1872       H  0.95841495  0.27575424  0.55371251     0.35400
C1873       C  0.83747848  0.67433623  0.54060016     0.46200
H1874       H  0.83579912  0.67358364  0.52586544    -0.02900
C1875       C  0.84170751  0.67595707  0.57503130     0.46200
H1876       H  0.84393417  0.67713143  0.58976069    -0.02900
C1877       C  0.88179585  0.69838643  0.54831002    -0.16600
C1878       C  0.81565255  0.69489649  0.54945408    -0.16300
C1879       C  0.81791962  0.63089009  0.54864623    -0.16700
C1880       C  0.88362177  0.69918675  0.56646200    -0.16700
C1881       C  0.81759081  0.69516440  0.56769033    -0.16200
C1882       C  0.82049377  0.63212099  0.56690226    -0.16500
C1883       C  0.66645498  0.83488729  0.45791962     0.46200
H1884       H  0.66550004  0.83413901  0.44317587    -0.02900
C1885       C  0.66768605  0.83519063  0.49237647     0.46200
H1886       H  0.66819404  0.83555342  0.50711756    -0.02900
C1887       C  0.68931934  0.81485159  0.46568164    -0.16600
C1888       C  0.68697676  0.87845632  0.46628704    -0.16300
C1889       C  0.62387187  0.81197510  0.46582402    -0.16700
C1890       C  0.68992683  0.81456719  0.48389611    -0.16700
C1891       C  0.68829051  0.87883100  0.48452167    -0.16200
C1892       C  0.62387207  0.81220871  0.48397692    -0.16500
O1893       O  0.59393118  0.73982421  0.69866395    -0.80200
O1894       O  0.68534863  0.88434733  0.64797539    -0.64900
O1895       O  0.66353679  0.80718669  0.68446672    -1.11500
C1896       C  0.62719095  0.89300866  0.71649810     1.06700
O1897       O  0.72191761  0.93631604  0.66703286    -0.78100
O1898       O  0.72475392  0.92721510  0.70269903    -0.65700
Ni1899     Ni  0.63168548  0.74909552  0.67990251     1.34900
C1900       C  0.72479680  0.89961069  0.71212394     0.85400
O1901       O  0.69437515  0.81807857  0.65017128    -0.78600
O1902       O  0.66772588  0.75416028  0.66120318    -0.88900
C1903       C  0.71145334  0.92223297  0.65114860     0.85000
O1904       O  0.59274176  0.74746100  0.66304373    -0.67100
O1905       O  0.65021337  0.92120366  0.70578809    -0.86400
C1906       C  0.59180553  0.77504588  0.65395341     0.85800
C1907       C  0.68995075  0.78205330  0.65025223     1.07400
H1908       H  0.62653801  0.86293589  0.67727335     0.39200
O1909       O  0.65289133  0.86825820  0.68174917    -1.09000
O1910       O  0.69574348  0.86212516  0.71184489    -0.65700
Ni1911     Ni  0.64240514  0.83098243  0.70052350     1.26300
O1912       O  0.62015147  0.81284473  0.65454694    -0.65900
O1913       O  0.62147500  0.85650128  0.71609332    -0.78200
C1914       C  0.60496456  0.75278127  0.71460345     0.85200
O1915       O  0.63083013  0.79055620  0.71806685    -0.65400
Ni1916     Ni  0.68511246  0.92632057  0.68644993     1.27400
Ni1917     Ni  0.67376873  0.84414005  0.66566408     1.26100
H1918       H  0.68997623  0.81275213  0.68895210     0.39800
C1919       C  0.97551504  0.50690631  0.79136095     0.46200
H1920       H  0.97439613  0.50700230  0.77662816    -0.02900
C1921       C  0.97743128  0.50538962  0.82580141     0.46200
H1922       H  0.97815851  0.50492877  0.84052588    -0.02900
C1923       C  0.99675081  0.98195873  0.79927787    -0.16600
C1924       C  0.99592378  0.54991129  0.80018422    -0.16300
C1925       C  0.93162136  0.97991566  0.79995746    -0.16700
C1926       C  0.99871089  0.98323938  0.81751230    -0.16700
C1927       C  0.99748514  0.54959175  0.81841838    -0.16200
C1928       C  0.93331322  0.98131950  0.81811255    -0.16500
C1929       C  0.64737581  0.84312877  0.87617103     0.46200
H1930       H  0.64637831  0.84273029  0.86142921    -0.02900
C1931       C  0.65005017  0.84383627  0.91060125     0.46200
H1932       H  0.65172758  0.84478015  0.92533141    -0.02900
C1933       C  0.63029106  0.79973544  0.88401964    -0.16600
C1934       C  0.69116281  0.86957829  0.88433836    -0.16300
C1935       C  0.62245460  0.86051415  0.88482628    -0.16700
C1936       C  0.63218647  0.80054031  0.90224276    -0.16700
C1937       C  0.69214714  0.86977064  0.90248860    -0.16200
C1938       C  0.62352871  0.86017532  0.90309034    -0.16500
C1939       C  0.85817804  0.66445113  0.15717120     0.46200
H1940       H  0.85803736  0.66460205  0.17190520    -0.02900
C1941       C  0.85939242  0.66508819  0.12275875     0.46200
H1942       H  0.85943656  0.66444253  0.10803311    -0.02900
C1943       C  0.87945442  0.64239845  0.14911060    -0.16600
C1944       C  0.81486146  0.64339766  0.14828366    -0.16300
C1945       C  0.88146743  0.70857483  0.14947417    -0.16700
C1946       C  0.88000124  0.64314965  0.13093036    -0.16700
C1947       C  0.81586163  0.64431917  0.13005758    -0.16200
C1948       C  0.88192635  0.70852368  0.13121975    -0.16500
C1949       C  0.52551255  0.00569871  0.20869285     0.46200
H1950       H  0.52474203  0.00599250  0.19396299    -0.02900
C1951       C  0.52632849  0.00387809  0.24304716     0.46200
H1952       H  0.52789663  0.00275923  0.25767991    -0.02900
C1953       C  0.57359912  0.52670466  0.21670573    -0.16600
C1954       C  0.50948683  0.52821485  0.21645764    -0.16300
C1955       C  0.50115166  0.96159643  0.21597843    -0.16700
C1956       C  0.57164967  0.52339054  0.23487678    -0.16700
C1957       C  0.50823941  0.52515245  0.23459748    -0.16200
C1958       C  0.50118014  0.96102398  0.23411752    -0.16500
O1959       O  0.78328723  0.57468778  0.36752365    -0.80200
O1960       O  0.88079542  0.71608045  0.31470513    -0.64900
O1961       O  0.85289076  0.64077557  0.35254821    -1.11500
C1962       C  0.81260261  0.72808066  0.38087941     1.06700
O1963       O  0.91041539  0.77033326  0.33316059    -0.78100
O1964       O  0.91043273  0.76371639  0.36875158    -0.65700
Ni1965     Ni  0.81929656  0.58266787  0.34824338     1.34900
C1966       C  0.91162931  0.73697833  0.37837837     0.85400
O1967       O  0.88981974  0.65094128  0.31972276    -0.78600
O1968       O  0.85274985  0.58521340  0.32876500    -0.88900
C1969       C  0.90217841  0.75481669  0.31752979     0.85000
O1970       O  0.77991709  0.58357795  0.33267719    -0.67100
O1971       O  0.83443859  0.75505651  0.36958221    -0.86400
C1972       C  0.78306245  0.60974618  0.32150329     0.85800
C1973       C  0.87968232  0.61298101  0.31894699     1.07400
H1974       H  0.81570122  0.69420766  0.34205013     0.39200
O1975       O  0.84189824  0.70120605  0.34738373    -1.09000
O1976       O  0.88358609  0.69912466  0.37832292    -0.65700
Ni1977     Ni  0.83062616  0.66599767  0.36713965     1.26300
O1978       O  0.81509747  0.64518158  0.32013619    -0.65900
O1979       O  0.80849360  0.69234115  0.38147457    -0.78200
C1980       C  0.79373628  0.58991680  0.38316502     0.85200
O1981       O  0.81915201  0.62811002  0.38586952    -0.65400
Ni1982     Ni  0.87134717  0.75988397  0.35136885     1.27400
Ni1983     Ni  0.86637885  0.67710198  0.33316313     1.26100
H1984       H  0.87837465  0.64551320  0.35785481     0.39800
O1985       O  0.53756911  0.60554609  0.00287627    -0.80200
O1986       O  0.98805753  0.95859893  0.05186278    -0.64900
O1987       O  0.53648705  0.53435337  0.01374352    -1.11500
C1988       C  0.91110209  0.95330348  0.98493475     1.06700
O1989       O  0.96281694  0.90471147  0.03309893    -0.78100
O1990       O  0.98426650  0.92430969  0.99946265    -0.65700
Ni1991     Ni  0.56852143  0.59251299  0.01907930     1.34900
C1992       C  0.49783642  0.93989066  0.98957825     0.85400
O1993       O  0.56640242  0.52005574  0.04554596    -0.78600
O1994       O  0.60295125  0.58483295  0.03547205    -0.88900
C1995       C  0.97247956  0.92030161  0.04873148     0.85000
O1996       O  0.53652428  0.59477136  0.03793370    -0.67100
O1997       O  0.91238277  0.92389441  0.99249520    -0.86400
C1998       C  0.01476215  0.56688079  0.04803995     0.85800
C1999       C  0.59884022  0.55593438  0.04539840     1.07400
H2000       H  0.94433524  0.97879118  0.02549349     0.39200
O2001       O  0.96481073  0.97519736  0.01959931    -1.09000
O2002       O  0.49721982  0.97287055  0.98651486    -0.65700
Ni2003     Ni  0.98941337  0.51742914  0.00043175     1.26300
O2004       O  0.00317842  0.52879106  0.04671325    -0.65900
O2005       O  0.93678350  0.99137327  0.98826340    -0.78200
C2006       C  0.52890983  0.59255633  0.98690127     0.85200
O2007       O  0.50900375  0.55426795  0.98313930    -0.65400
Ni2008     Ni  0.93976629  0.91796429  0.01304976     1.27400
Ni2009     Ni  0.51080752  0.98438084  0.03198860     1.26100
H2010       H  0.55403265  0.52752838  0.00715501     0.39800
C2011       C  0.71329088  0.59858527  0.28662966     0.21000
C2012       C  0.70062987  0.60876299  0.27089177    -0.38800
C2013       C  0.66304520  0.57760978  0.26340664     0.20000
C2014       C  0.63983622  0.53954078  0.27116554     0.22700
C2015       C  0.65230982  0.52944383  0.28691143    -0.39300
C2016       C  0.68997441  0.56037815  0.29427852     0.21500
N2017       N  0.74885264  0.62177735  0.29578016    -0.32600
C2018       C  0.74819988  0.59793854  0.30921780    -0.10200
C2019       C  0.71181885  0.55957578  0.30880967    -0.29000
N2020       N  0.60534372  0.51536872  0.26160393    -0.45600
C2021       C  0.60657700  0.53789671  0.24754783    -0.04900
C2022       C  0.64201099  0.57708358  0.24822078    -0.22200
H2023       H  0.71898765  0.63844069  0.26478575     0.19600
H2024       H  0.63432042  0.49945974  0.29282559     0.18400
H2025       H  0.70329626  0.53394985  0.31752246     0.14700
H2026       H  0.65057780  0.60205625  0.23913496     0.14500
H2027       H  0.77271094  0.65133410  0.29268938     0.32700
H2028       H  0.58261044  0.98229648  0.26280380     0.35400
C2029       C  0.97425775  0.87203004  0.25803349     0.21000
C2030       C  0.97735875  0.83979928  0.26568695    -0.38800
C2031       C  0.95093489  0.81997464  0.27984373     0.20000
C2032       C  0.92444885  0.83225183  0.28604310     0.22700
C2033       C  0.92139359  0.86420804  0.27844149    -0.39300
C2034       C  0.94697110  0.88325777  0.26418252     0.21500
N2035       N  0.48204644  0.88949813  0.24312941    -0.32600
C2036       C  0.98316634  0.92376714  0.24282209    -0.10200
C2037       C  0.95219454  0.91605350  0.25452325    -0.29000
N2038       N  0.90381863  0.81012939  0.29998882    -0.45600
C2039       C  0.91654615  0.78300374  0.30265049    -0.04900
C2040       C  0.94588501  0.78788503  0.29034838    -0.22200
H2041       H  0.47267619  0.81432103  0.25436830     0.19600
H2042       H  0.90085255  0.87386855  0.28341275     0.18400
H2043       H  0.93653030  0.93309293  0.25613737     0.14700
H2044       H  0.96208742  0.77118082  0.28955842     0.14500
H2045       H  0.49735603  0.88304636  0.23333588     0.32700
H2046       H  0.88244463  0.81338806  0.30736867     0.35400
C2047       C  0.93500184  0.59900618  0.28404433     0.21000
C2048       C  0.96067178  0.60935974  0.26934778    -0.38800
C2049       C  0.96547052  0.57736872  0.26225122     0.20000
C2050       C  0.94633998  0.53828861  0.26936194     0.22700
C2051       C  0.92055328  0.52790910  0.28390534    -0.39300
C2052       C  0.91565645  0.55969735  0.29090898     0.21500
N2053       N  0.92530626  0.62361189  0.29327778    -0.32600
C2054       C  0.89946314  0.59951179  0.30600138    -0.10200
C2055       C  0.89280210  0.55953614  0.30490883    -0.29000
N2056       N  0.95671094  0.51372739  0.26068920    -0.45600
C2057       C  0.98222296  0.53698915  0.24778698    -0.04900
C2058       C  0.98862501  0.57698123  0.24832982    -0.22200
H2059       H  0.97590033  0.64002014  0.26390736     0.19600
H2060       H  0.90556232  0.49733798  0.28943593     0.18400
H2061       H  0.87358380  0.53370481  0.31320990     0.14700
H2062       H  0.00829410  0.60245790  0.23996139     0.14500
H2063       H  0.93523717  0.65460016  0.29095877     0.32700
H2064       H  0.45755808  0.48741209  0.26357879     0.35400
C2065       C  0.92242405  0.80500085  0.10874250     0.21000
C2066       C  0.93057404  0.84512237  0.10535524    -0.38800
C2067       C  0.94678984  0.86042822  0.08862665     0.20000
C2068       C  0.95372742  0.83718163  0.07627534     0.22700
C2069       C  0.94592305  0.79751165  0.07970817    -0.39300
C2070       C  0.93018396  0.78255616  0.09635892     0.21500
N2071       N  0.90466168  0.78211850  0.12306411    -0.32600
C2072       C  0.90184284  0.74515115  0.11974890    -0.10200
C2073       C  0.91707596  0.74445286  0.10311266    -0.29000
N2074       N  0.96543637  0.85657334  0.06085210    -0.45600
C2075       C  0.96627278  0.89262478  0.06330648    -0.04900
C2076       C  0.95534588  0.89656877  0.08052528    -0.22200
H2077       H  0.92372305  0.86257770  0.11479362     0.19600
H2078       H  0.95050505  0.77905973  0.06989092     0.18400
H2079       H  0.91717935  0.71905507  0.09633567     0.14700
H2080       H  0.95144938  0.92110461  0.08593196     0.14500
H2081       H  0.89346047  0.79055830  0.13391310     0.32700
H2082       H  0.50255127  0.88761738  0.07044146     0.35400
C2083       C  0.72304252  0.59255937  0.10328771     0.21000
C2084       C  0.68474485  0.55971871  0.09702973    -0.38800
C2085       C  0.66939549  0.56665959  0.08118944     0.20000
C2086       C  0.69059222  0.60358121  0.07238099     0.22700
C2087       C  0.72873351  0.63631831  0.07860113    -0.39300
C2088       C  0.74408731  0.62927270  0.09431469     0.21500
N2089       N  0.74497336  0.59340495  0.11768434    -0.32600
C2090       C  0.78023378  0.63086914  0.11772007    -0.10200
C2091       C  0.78069450  0.65400276  0.10337432    -0.29000
N2092       N  0.66895729  0.60330504  0.05809596    -0.45600
C2093       C  0.63345098  0.56605853  0.05775351    -0.04900
C2094       C  0.63273096  0.54209555  0.07187323    -0.22200
H2095       H  0.66813202  0.53093950  0.10397499     0.19600
H2096       H  0.74528465  0.66517142  0.07168960     0.18400
H2097       H  0.80510553  0.68451553  0.09983129     0.14700
H2098       H  0.60793717  0.51174469  0.07534323     0.14500
H2099       H  0.73719172  0.56952038  0.12651929     0.32700
H2100       H  0.67722797  0.62769928  0.04948245     0.35400
C2101       C  0.94568763  0.63382113  0.10024742     0.21000
C2102       C  0.97609047  0.64781295  0.08741185    -0.38800
C2103       C  0.98055179  0.61715474  0.07887059     0.20000
C2104       C  0.95675713  0.57575325  0.08292738     0.22700
C2105       C  0.92633356  0.56174235  0.09582687    -0.39300
C2106       C  0.92161930  0.59243841  0.10429789     0.21500
N2107       N  0.93454737  0.65673984  0.10967242    -0.32600
C2108       C  0.90287952  0.62993536  0.11964883    -0.10200
C2109       C  0.89398110  0.58944392  0.11683581    -0.29000
N2110       N  0.96632081  0.55270982  0.07258890    -0.45600
C2111       C  0.99619279  0.57962534  0.06182184    -0.04900
C2112       C  0.00601376  0.62015637  0.06538212    -0.22200
H2113       H  0.99435229  0.68011373  0.08407840     0.19600
H2114       H  0.90729373  0.52930754  0.09880827     0.18400
H2115       H  0.86990976  0.56166797  0.12275141     0.14700
H2116       H  0.51208534  0.64484828  0.05430025     0.14500
H2117       H  0.94802410  0.68879831  0.10948459     0.32700
H2118       H  0.95290108  0.52058042  0.07266527     0.35400
C2119       C  0.97187355  0.57417834  0.18655092     0.21000
C2120       C  0.97565868  0.59857256  0.17197625    -0.38800
C2121       C  0.94354101  0.60643856  0.16932019     0.20000
C2122       C  0.91011015  0.59115822  0.18028565     0.22700
C2123       C  0.90626231  0.56663739  0.19485762    -0.39300
C2124       C  0.93852324  0.55891702  0.19756907     0.21500
N2125       N  0.50409485  0.56923163  0.19197654    -0.32600
C2126       C  0.98280444  0.54118252  0.20699351    -0.10200
C2127       C  0.94489025  0.53740537  0.21063773    -0.29000
N2128       N  0.88367096  0.60287042  0.17479501    -0.45600
C2129       C  0.90007730  0.62532661  0.16007632    -0.04900
C2130       C  0.93776701  0.62863429  0.15643855    -0.22200
H2131       H  0.50573408  0.61918103  0.16453817     0.19600
H2132       H  0.88023805  0.55469876  0.20351741     0.18400
H2133       H  0.92468062  0.52126782  0.22142062     0.14700
H2134       H  0.95837845  0.64506364  0.14581677     0.14500
H2135       H  0.53321594  0.58014444  0.18677504     0.32700
H2136       H  0.85567549  0.59515781  0.18044071     0.35400
C2137       C  0.73379843  0.59409830  0.17954176     0.21000
C2138       C  0.71394633  0.57078002  0.19445238    -0.38800
C2139       C  0.67397396  0.56300189  0.19711954     0.20000
C2140       C  0.65520608  0.57726636  0.18577893     0.22700
C2141       C  0.67501569  0.60048855  0.17084327    -0.39300
C2142       C  0.71498550  0.60826321  0.16817428     0.21500
N2143       N  0.77168494  0.60536269  0.17402849    -0.32600
C2144       C  0.77695041  0.62631450  0.15887437    -0.10200
C2145       C  0.74232852  0.62920695  0.15493717    -0.29000
N2146       N  0.61730175  0.56596646  0.19127645    -0.45600
C2147       C  0.61193408  0.54478512  0.20636974    -0.04900
C2148       C  0.64652414  0.54182504  0.21028930    -0.22200
H2149       H  0.72857081  0.55957034  0.20333591     0.19600
H2150       H  0.66034834  0.61160450  0.16193449     0.18400
H2151       H  0.73770651  0.64462957  0.14393654     0.14700
H2152       H  0.64562020  0.02174750  0.22159641     0.14500
H2153       H  0.79237683  0.59842607  0.18001455     0.32700
H2154       H  0.59657892  0.57284056  0.18526601     0.35400
C2155       C  0.94462091  0.80967711  0.16938969     0.21000
C2156       C  0.97799996  0.85062123  0.17072612    -0.38800
C2157       C  0.97474001  0.87625204  0.18351527     0.20000
C2158       C  0.94093280  0.86192311  0.19422700     0.22700
C2159       C  0.90751262  0.82106415  0.19284342    -0.39300
C2160       C  0.91064865  0.79554371  0.17998891     0.21500
N2161       N  0.93955907  0.77981055  0.15782809    -0.32600
C2162       C  0.90175956  0.74667788  0.16083423    -0.10200
C2163       C  0.88307221  0.75504595  0.17477241    -0.29000
N2164       N  0.94593851  0.89164910  0.20583340    -0.45600
C2165       C  0.98324203  0.92522864  0.20258443    -0.04900
C2166       C  0.50003333  0.91385987  0.19147835    -0.22200
H2167       H  0.50332477  0.85598233  0.16716635     0.19600
H2168       H  0.88098818  0.80998451  0.20116280     0.18400
H2169       H  0.85256010  0.73496217  0.17974567     0.14700
H2170       H  0.53134581  0.93280809  0.18713900     0.14500
H2171       H  0.96006820  0.78224403  0.14812528     0.32700
H2172       H  0.92551578  0.88890585  0.21563463     0.35400
C2173       C  0.77957968  0.92212865  0.93181199     0.21000
C2174       C  0.80910564  0.95430979  0.94289118    -0.38800
C2175       C  0.83400808  0.94457513  0.95318308     0.20000
C2176       C  0.82930434  0.90558849  0.95266018     0.22700
C2177       C  0.79997887  0.87353489  0.94154886    -0.39300
C2178       C  0.77557114  0.88343540  0.93108604     0.21500
N2179       N  0.75120421  0.92288453  0.92118630    -0.32600
C2180       C  0.72962391  0.88460786  0.91351938    -0.10200
C2181       C  0.74371450  0.85911897  0.91937535    -0.29000
N2182       N  0.85601701  0.90385742  0.96394461    -0.45600
C2183       C  0.87828237  0.94213216  0.97157587    -0.04900
C2184       C  0.86554984  0.96848370  0.96520032    -0.22200
H2185       H  0.81230733  0.98456757  0.94351745     0.19600
H2186       H  0.79626274  0.84304509  0.94116472     0.18400
H2187       H  0.73123049  0.82672896  0.91599940     0.14700
H2188       H  0.87744878  0.00056327  0.96899016     0.14500
H2189       H  0.74601350  0.94737118  0.91962491     0.32700
H2190       H  0.85910649  0.87826707  0.96622207     0.35400
C2191       C  0.58334063  0.67843361  0.95917408     0.21000
C2192       C  0.61535162  0.71768725  0.95486229    -0.38800
C2193       C  0.61306950  0.73026024  0.93779636     0.20000
C2194       C  0.58118248  0.70593115  0.92588697     0.22700
C2195       C  0.54943916  0.66599794  0.93007600    -0.39300
C2196       C  0.55194219  0.65310206  0.94720639     0.21500
N2197       N  0.57801882  0.66030502  0.97481481    -0.32600
C2198       C  0.54341306  0.62278088  0.97282045    -0.10200
C2199       C  0.52623550  0.61680768  0.95574197    -0.29000
N2200       N  0.58440513  0.72700733  0.91115714    -0.45600
C2201       C  0.61891753  0.76470122  0.91377303    -0.04900
C2202       C  0.63758614  0.76758491  0.93018409    -0.22200
H2203       H  0.63969917  0.73747121  0.96429088     0.19600
H2204       H  0.52429138  0.64684909  0.92086710     0.18400
H2205       H  0.49868361  0.58984538  0.95039667     0.14700
H2206       H  0.66448869  0.79415304  0.93617123     0.14500
H2207       H  0.59726376  0.67240312  0.98608789     0.32700
H2208       H  0.56309558  0.71720280  0.90058994     0.35400
C2209       C  0.55333162  0.92937730  0.95402768     0.21000
C2210       C  0.57221103  0.93844691  0.93746186    -0.38800
C2211       C  0.58142739  0.90939002  0.93060203     0.20000
C2212       C  0.57256028  0.87416214  0.93964782     0.22700
C2213       C  0.55381378  0.86513663  0.95622648    -0.39300
C2214       C  0.54442084  0.89408084  0.96304454     0.21500
N2215       N  0.53962281  0.95094120  0.96287274    -0.32600
C2216       C  0.52135044  0.92906903  0.97751975    -0.10200
C2217       C  0.52409469  0.89353355  0.97820673    -0.29000
N2218       N  0.58489407  0.85182039  0.93051587    -0.45600
C2219       C  0.60175606  0.87274444  0.91551410    -0.04900
C2220       C  0.60031684  0.90904006  0.91509475    -0.22200
H2221       H  0.57884755  0.96590084  0.93036961     0.19600
H2222       H  0.54668459  0.83739118  0.96319970     0.18400
H2223       H  0.51130108  0.86963582  0.98799628     0.14700
H2224       H  0.61278156  0.93267828  0.90519034     0.14500
H2225       H  0.54101619  0.97800490  0.95877208     0.32700
H2226       H  0.58258543  0.82420247  0.93440913     0.35400
C2227       C  0.53136947  0.93025129  0.84801533     0.21000
C2228       C  0.52596424  0.90357422  0.86189941    -0.38800
C2229       C  0.55774984  0.89522848  0.86453254     0.20000
C2230       C  0.59215735  0.91205552  0.85408775     0.22700
C2231       C  0.59749641  0.93859400  0.84017665    -0.39300
C2232       C  0.56576948  0.94697489  0.83756551     0.21500
N2233       N  0.50522861  0.94223424  0.84253084    -0.32600
C2234       C  0.52272258  0.96606229  0.82827781    -0.10200
C2235       C  0.56087055  0.97032578  0.82497360    -0.29000
N2236       N  0.61855379  0.90052759  0.85965956    -0.45600
C2237       C  0.60128955  0.87682597  0.87396572    -0.04900
C2238       C  0.56291557  0.87212307  0.87720301    -0.22200
H2239       H  0.49910830  0.89045724  0.87009908     0.19600
H2240       H  0.62439617  0.95178437  0.83200058     0.18400
H2241       H  0.58063481  0.48646034  0.81472394     0.14700
H2242       H  0.54205977  0.85497016  0.88765427     0.14500
H2243       H  0.97546068  0.93643021  0.84871848     0.32700
H2244       H  0.64736801  0.90962322  0.85449933     0.35400
C2245       C  0.57278988  0.71260386  0.85433459     0.21000
C2246       C  0.54195849  0.68782300  0.84165571    -0.38800
C2247       C  0.53495134  0.64773511  0.83881225     0.20000
C2248       C  0.55679386  0.63325582  0.84796457     0.22700
C2249       C  0.58770627  0.65808807  0.86064340    -0.39300
C2250       C  0.59481278  0.69827048  0.86344672     0.21500
N2251       N  0.58426596  0.75127898  0.85986270    -0.32600
C2252       C  0.61333035  0.76149617  0.87279869    -0.10200
C2253       C  0.62125448  0.72945452  0.87520056    -0.29000
N2254       N  0.54496751  0.59441184  0.84248413    -0.45600
C2255       C  0.51590589  0.58436603  0.82954212    -0.04900
C2256       C  0.50851661  0.61669874  0.82703453    -0.22200
H2257       H  0.52470295  0.69895862  0.83450718     0.19600
H2258       H  0.60489877  0.64692783  0.86782532     0.18400
H2259       H  0.64224032  0.72846132  0.88479216     0.14700
H2260       H  0.98637964  0.62095938  0.81815579     0.14500
H2261       H  0.57170232  0.76892004  0.85572129     0.32700
H2262       H  0.55717179  0.57650421  0.84669751     0.35400
C2263       C  0.77270882  0.89591593  0.85432692     0.21000
C2264       C  0.79305058  0.88922493  0.84048551    -0.38800
C2265       C  0.83384452  0.92075386  0.83816095     0.20000
C2266       C  0.85321015  0.95621646  0.84884716     0.22700
C2267       C  0.83288094  0.96288460  0.86277128    -0.39300
C2268       C  0.79191159  0.93130853  0.86506052     0.21500
N2269       N  0.73394860  0.87033801  0.85937381    -0.32600
C2270       C  0.72856349  0.88925496  0.87359580    -0.10200
C2271       C  0.76388283  0.92758614  0.87741088    -0.29000
N2272       N  0.89177614  0.98187177  0.84349481    -0.45600
C2273       C  0.89647918  0.96271423  0.82914082    -0.04900
C2274       C  0.86124367  0.92436458  0.82558668    -0.22200
H2275       H  0.77811883  0.86162858  0.83205033     0.19600
H2276       H  0.84776756  0.99056706  0.87115799     0.18400
H2277       H  0.76865583  0.94962973  0.88788840     0.14700
H2278       H  0.85610094  0.90225153  0.81507485     0.14500
H2279       H  0.71298245  0.84111604  0.85392421     0.32700
H2280       H  0.91257792  0.50832545  0.84916481     0.35400
C2281       C  0.84786503  0.92880150  0.76900714     0.21000
C2282       C  0.82141561  0.89766427  0.75676075    -0.38800
C2283       C  0.79975373  0.90848674  0.74494433     0.20000
C2284       C  0.80455360  0.94751023  0.74516689     0.22700
C2285       C  0.83065691  0.97848304  0.75752202    -0.39300
C2286       C  0.85194645  0.96752803  0.76945437     0.21500
N2287       N  0.87386326  0.92726550  0.78082905    -0.32600
C2288       C  0.89416298  0.96508380  0.78894664    -0.10200
C2289       C  0.88144302  0.99105777  0.78223532    -0.29000
N2290       N  0.78027109  0.94992527  0.73270881    -0.45600
C2291       C  0.75924207  0.91194676  0.72472510    -0.04900
C2292       C  0.77061284  0.88524523  0.73194887    -0.22200
H2293       H  0.81813056  0.86736022  0.75639584     0.19600
H2294       H  0.82886976  0.50968157  0.75989304     0.18400
H2295       H  0.89164361  0.52528705  0.78656331     0.14700
H2296       H  0.75819802  0.85287191  0.72855800     0.14500
H2297       H  0.87917214  0.90290807  0.78258862     0.32700
H2298       H  0.77662581  0.97516914  0.73040712     0.35400
C2299       C  0.57979683  0.69171923  0.75336266     0.21000
C2300       C  0.58638878  0.67914218  0.76995370    -0.38800
C2301       C  0.55456544  0.64053751  0.77553612     0.20000
C2302       C  0.51927806  0.61648854  0.76526317     0.22700
C2303       C  0.51298227  0.62870315  0.74866088    -0.39300
C2304       C  0.54453435  0.66711500  0.74314134     0.21500
N2305       N  0.60540833  0.72653581  0.74482064    -0.32600
C2306       C  0.58632390  0.72348481  0.72901585    -0.10200
C2307       C  0.54837663  0.68690926  0.72751336    -0.29000
N2308       N  0.99142185  0.58473491  0.77340094    -0.45600
C2309       C  0.51318310  0.58177523  0.78861108    -0.04900
C2310       C  0.55119396  0.61855358  0.79058812    -0.22200
H2311       H  0.61426611  0.69781543  0.77784055     0.19600
H2312       H  0.48565744  0.60943376  0.74053363     0.18400
H2313       H  0.52691135  0.67588452  0.71630451     0.14700
H2314       H  0.57389897  0.62727558  0.80120127     0.14500
H2315       H  0.63463405  0.75004989  0.74913952     0.32700
H2316       H  0.96418614  0.55984368  0.76804883     0.35400
C2317       C  0.54166700  0.92942594  0.77399015     0.21000
C2318       C  0.54910998  0.89772453  0.76884551    -0.38800
C2319       C  0.57144749  0.90450146  0.75318400     0.20000
C2320       C  0.58501778  0.94004515  0.74354443     0.22700
C2321       C  0.57725156  0.97122416  0.74855181    -0.39300
C2322       C  0.55525844  0.96455610  0.76407508     0.21500
N2323       N  0.52123198  0.93099468  0.78822040    -0.32600
C2324       C  0.52218598  0.96748330  0.78715581    -0.10200
C2325       C  0.54292551  0.98894448  0.77226435    -0.29000
N2326       N  0.60612048  0.93995702  0.72946079    -0.45600
C2327       C  0.60617352  0.90407307  0.72988334    -0.04900
C2328       C  0.58468935  0.88086922  0.74448905    -0.22200
H2329       H  0.03850368  0.87303263  0.77727840     0.19600
H2330       H  0.59554741  0.50702476  0.74326349     0.18400
H2331       H  0.55364474  0.52470959  0.77029774     0.14700
H2332       H  0.57992568  0.85116626  0.74832956     0.14500
H2333       H  0.00433024  0.90940372  0.79818429     0.32700
H2334       H  0.61980169  0.96313314  0.72010947     0.35400
C2335       C  0.74298374  0.79817879  0.43117642     0.21000
C2336       C  0.76625287  0.80833538  0.41585426    -0.38800
C2337       C  0.77319041  0.77779277  0.40906585     0.20000
C2338       C  0.75827033  0.73985216  0.41690123     0.22700
C2339       C  0.73487652  0.72962675  0.43237030    -0.39300
C2340       C  0.72780648  0.76039291  0.43920748     0.21500
N2341       N  0.73170852  0.82191354  0.43984999    -0.32600
C2342       C  0.70935949  0.79955119  0.45364674    -0.10200
C2343       C  0.70592923  0.76074277  0.45370816    -0.29000
N2344       N  0.76966478  0.71648730  0.40773427    -0.45600
C2345       C  0.79190422  0.74000169  0.39403752    -0.04900
C2346       C  0.79465261  0.77833084  0.39448165    -0.22200
H2347       H  0.77799573  0.83790380  0.40961906     0.19600
H2348       H  0.72300822  0.70000445  0.43856514     0.18400
H2349       H  0.68911664  0.73602548  0.46286201     0.14700
H2350       H  0.81073279  0.80351672  0.38545094     0.14500
H2351       H  0.73863553  0.85162293  0.43653403     0.32700
H2352       H  0.76320307  0.68676407  0.41071683     0.35400
C2353       C  0.98625914  0.74578346  0.41004077     0.21000
C2354       C  0.50873636  0.72929308  0.42320130    -0.38800
C2355       C  0.53845691  0.75978137  0.43473885     0.20000
C2356       C  0.54613510  0.79994017  0.43542490     0.22700
C2357       C  0.52545677  0.81307522  0.42426136    -0.39300
C2358       C  0.49602970  0.78269542  0.41261833     0.21500
N2359       N  0.95560272  0.72324364  0.39827046    -0.32600
C2360       C  0.94661658  0.75012792  0.39067961    -0.10200
C2361       C  0.97184499  0.79021685  0.39755287    -0.29000
N2362       N  0.57605652  0.82302588  0.44741140    -0.45600
C2363       C  0.58744142  0.79734270  0.45430435    -0.04900
C2364       C  0.56525276  0.75787478  0.44661027    -0.22200
H2365       H  0.50264630  0.69788764  0.42274979     0.19600
H2366       H  0.53187294  0.84460195  0.42458327     0.18400
H2367       H  0.97078948  0.81761637  0.39440388     0.14700
H2368       H  0.56918452  0.73182064  0.44899407     0.14500
H2369       H  0.94105497  0.69134700  0.39582709     0.32700
H2370       H  0.58887719  0.85454617  0.45034497     0.35400
C2371       C  0.73432528  0.97471658  0.44342696     0.21000
C2372       C  0.76467328  0.01539175  0.43945774    -0.38800
C2373       C  0.76571371  0.52829478  0.42267509     0.20000
C2374       C  0.73371458  0.50491336  0.41063916     0.22700
C2375       C  0.69789613  0.96386542  0.41503062    -0.39300
C2376       C  0.70212855  0.95032834  0.43166151     0.21500
N2377       N  0.73309794  0.95295016  0.45766584    -0.32600
C2378       C  0.69961957  0.91457469  0.45486991    -0.10200
C2379       C  0.67968491  0.91204811  0.43882203    -0.29000
N2380       N  0.73876792  0.52530877  0.39563629    -0.45600
C2381       C  0.77423090  0.56205181  0.39794230    -0.04900
C2382       C  0.79181796  0.56551470  0.41477489    -0.22200
H2383       H  0.79060645  0.03429439  0.44835228     0.19600
H2384       H  0.67361044  0.94386245  0.40562082     0.18400
H2385       H  0.65302555  0.88531669  0.43280666     0.14700
H2386       H  0.82114138  0.59034057  0.41994614     0.14500
H2387       H  0.75480798  0.96302532  0.46808428     0.32700
H2388       H  0.72022239  0.51400372  0.38413550     0.35400
C2389       C  0.77736970  0.74701960  0.59339368     0.21000
C2390       C  0.76929614  0.77825347  0.59847483    -0.38800
C2391       C  0.74665302  0.77108081  0.61402012     0.20000
C2392       C  0.73323176  0.73552842  0.62363592     0.22700
C2393       C  0.74148490  0.70462702  0.61865618    -0.39300
C2394       C  0.76396458  0.71177963  0.60322282     0.21500
N2395       N  0.79804119  0.74596824  0.57917850    -0.32600
C2396       C  0.79736611  0.70963413  0.58006992    -0.10200
C2397       C  0.77673393  0.68780001  0.59493796    -0.29000
N2398       N  0.71180530  0.73540555  0.63763962    -0.45600
C2399       C  0.71145420  0.77115453  0.63711081    -0.04900
C2400       C  0.73300595  0.79443596  0.62257621    -0.22200
H2401       H  0.77964356  0.80588796  0.59086529     0.19600
H2402       H  0.73096433  0.67688356  0.62621628     0.18400
H2403       H  0.77164678  0.65815053  0.59907953     0.14700
H2404       H  0.73756220  0.82403042  0.61868889     0.14500
H2405       H  0.81218441  0.76869701  0.56967980     0.32700
H2406       H  0.69807400  0.71219664  0.64697543     0.35400
C2407       C  0.96417969  0.71374908  0.59587897     0.21300
C2408       C  0.98481518  0.70074649  0.60717275    -0.38800
C2409       C  0.50666029  0.72591398  0.62213879     0.20000
C2410       C  0.51756751  0.76708238  0.62202195     0.22700
C2411       C  0.99872184  0.78339892  0.60918817    -0.39300
C2412       C  0.97049632  0.75336396  0.59699413     0.21500
N2413       N  0.93435439  0.69043555  0.58386074    -0.32600
C2414       C  0.92142420  0.71523710  0.57736196    -0.10200
C2415       C  0.94289398  0.75460947  0.58530147    -0.29000
N2416       N  0.54832345  0.78959417  0.63381619    -0.45600
C2417       C  0.55687715  0.76252426  0.64157122    -0.04900
C2418       C  0.53126992  0.72241958  0.63475885    -0.22200
H2419       H  0.46821100  0.66392281  0.61051756     0.19600
H2420       H  0.00348598  0.81428040  0.61011223     0.18400
H2421       H  0.93745890  0.77988353  0.58345364     0.14700
H2422       H  0.53193071  0.69485349  0.63800029     0.14500
H2423       H  0.92186404  0.65894382  0.58096626     0.32700
H2424       H  0.56323929  0.82154913  0.63614574     0.35400
C2425       C  0.79829889  0.56199001  0.60220364     0.21000
C2426       C  0.80431918  0.54992763  0.61891909    -0.38800
C2427       C  0.77418995  0.00614964  0.62198244     0.20000
C2428       C  0.73897367  0.48553942  0.61355159     0.22700
C2429       C  0.73261728  0.49799430  0.59691320    -0.39300
C2430       C  0.76371351  0.53722448  0.59165233     0.21500
N2431       N  0.82307062  0.59790225  0.59438960    -0.32600
C2432       C  0.80434154  0.59629109  0.57870349    -0.10200
C2433       C  0.76693709  0.55897262  0.57657742    -0.29000
N2434       N  0.71378068  0.94625864  0.62007785    -0.45600
C2435       C  0.73146114  0.95042317  0.63637795    -0.04900
C2436       C  0.76920309  0.98725826  0.63797163    -0.22200
H2437       H  0.83100561  0.56972186  0.62730066     0.19600
H2438       H  0.70540013  0.47871465  0.58873461     0.18400
H2439       H  0.74455361  0.54954126  0.56578199     0.14700
H2440       H  0.78946651  0.99940552  0.64956513     0.14500
H2441       H  0.85098922  0.62219809  0.59953353     0.32700
H2442       H  0.68481116  0.92254931  0.61559176     0.35400
C2443       C  0.75351096  0.73206467  0.53067934     0.21000
C2444       C  0.72106510  0.73983303  0.52966814    -0.38800
C2445       C  0.72162447  0.76314720  0.51523710     0.20000
C2446       C  0.75217339  0.77757770  0.50278478     0.22700
C2447       C  0.78459949  0.76975860  0.50376927    -0.39300
C2448       C  0.78402604  0.74644137  0.51820612     0.21500
N2449       N  0.76017621  0.71109919  0.54322463    -0.32600
C2450       C  0.79552783  0.71262715  0.53884984    -0.10200
C2451       C  0.81100271  0.73391881  0.52319328    -0.29000
N2452       N  0.74555292  0.79866624  0.49029458    -0.45600
C2453       C  0.71012646  0.79707317  0.49464548    -0.04900
C2454       C  0.69462362  0.77568547  0.51026844    -0.22200
H2455       H  0.69721100  0.72863028  0.53942364     0.19600
H2456       H  0.80846255  0.78096943  0.49401384     0.18400
H2457       H  0.83882602  0.74029257  0.51661815     0.14700
H2458       H  0.66675409  0.76921270  0.51682319     0.14500
H2459       H  0.74149400  0.69637480  0.55396190     0.32700
H2460       H  0.76435937  0.81352723  0.47960712     0.35400
C2461       C  0.77969085  0.53017153  0.52845817     0.21000
C2462       C  0.77836754  0.99511745  0.52616982    -0.38800
C2463       C  0.74742423  0.96745378  0.51419142     0.20000
C2464       C  0.72299637  0.97824202  0.50461987     0.22700
C2465       C  0.73198339  0.51870619  0.50391644    -0.39300
C2466       C  0.76013909  0.54408793  0.51737396     0.21500
N2467       N  0.80370087  0.55959627  0.54062225    -0.32600
C2468       C  0.79908144  0.59238830  0.53744594    -0.10200
C2469       C  0.77270515  0.58414626  0.52283612    -0.29000
N2470       N  0.69726789  0.94720564  0.49346511    -0.45600
C2471       C  0.70574918  0.91670191  0.49580757    -0.04900
C2472       C  0.73627773  0.92778967  0.50885602    -0.22200
H2473       H  0.79749664  0.98670448  0.53363688     0.19600
H2474       H  0.71652683  0.52952215  0.49531004     0.18400
H2475       H  0.76273022  0.60413923  0.51743959     0.14700
H2476       H  0.75008019  0.91016879  0.51307110     0.14500
H2477       H  0.82169689  0.55725995  0.55062968     0.32700
H2478       H  0.67622131  0.94727527  0.48438557     0.35400
C2479       C  0.52354310  0.75533445  0.50269610     0.21000
C2480       C  0.98426104  0.72123357  0.50243031    -0.38800
C2481       C  0.96247852  0.72458498  0.51659433     0.20000
C2482       C  0.97997106  0.75815184  0.52836483     0.22700
C2483       C  0.51858645  0.79331164  0.52808872    -0.39300
C2484       C  0.54061332  0.78961467  0.51406631     0.21500
N2485       N  0.55095323  0.75886868  0.49067487    -0.32600
C2486       C  0.58585439  0.79557641  0.49440169    -0.10200
C2487       C  0.58063285  0.81566028  0.50894208    -0.29000
N2488       N  0.95318640  0.75366961  0.54084468    -0.45600
C2489       C  0.91850466  0.71681685  0.53712295    -0.04900
C2490       C  0.92289990  0.69795694  0.52195236    -0.22200
H2491       H  0.97066058  0.69494310  0.49324305     0.19600
H2492       H  0.53199433  0.81999430  0.53705860     0.18400
H2493       H  0.60299220  0.84540010  0.51485172     0.14700
H2494       H  0.90062682  0.66821920  0.51601235     0.14500
H2495       H  0.54643319  0.73695230  0.48088833     0.32700
H2496       H  0.95823209  0.77475070  0.55110931     0.35400
loop_ 
_geom_bond_atom_site_label_1 
_geom_bond_atom_site_label_2 
_geom_bond_distance 
_geom_bond_site_symmetry_2 
_ccdc_geom_bond_type 
C1            H2   1.111       .  S
C1            C7   1.546       .  S
C1            C6   1.544       .  S
C1            C5   1.544       .  S
C3            H4   1.111       .  S
C3            C9   1.532       .  S
C3            C8   1.524       .  S
C3           C10   1.531       .  S
C5            C8   1.370       .  D
C5          C617   1.481       .  S
C6            C9   1.377       .  D
C6          C578   1.483       .  S
C7           C10   1.374       .  D
C7          C596   1.486       .  S
C8          C542   1.468       .  S
C9          C524   1.482       .  S
C10         C560   1.478       .  S
C11          H12   1.112       .  S
C11          C17   1.524       .  S
C11          C16   1.529       .  S
C11          C15   1.529       .  S
C13          H14   1.111       .  S
C13          C19   1.542       .  S
C13          C18   1.542       .  S
C13          C20   1.543       .  S
C15          C18   1.376       .  D
C15         C470   1.475       .  S
C16          C19   1.372       .  D
C16         C506   1.474       .  S
C17          C20   1.372       .  D
C17         C491   1.471       .  S
C18         C581   1.482       .  S
C19         C599   1.481       .  S
C20         C614   1.480       .  S
O21         Ni27   1.927       .  S
O21          C42   1.270       .  A
O22         Ni45   1.901       .  S
O22          C31   1.266       .  A
O23         Ni27   1.901       .  S
O23         Ni45   1.899       .  S
O23         Ni39   1.911       .  S
O23          H46   0.967       .  S
C24          O41   1.279       .  A
C24          O33   1.279       .  A
C24         C455   1.472       .  S
O25         Ni44   1.939       .  S
O25          C31   1.274       .  A
O26         Ni44   1.911       .  S
O26          C28   1.269       .  A
Ni27         O30   1.918       .  S
Ni27         O32   1.908       .  S
C28          O38   1.270       .  A
C28         C419   1.471       .  S
O29         Ni45   1.927       .  S
O29          C35   1.278       .  A
O30          C35   1.277       .  A
C31         C563   1.467       .  S
O32          C34   1.268       .  A
O33         Ni44   1.925       .  S
C34          O40   1.270       .  A
C34         C545   1.471       .  S
C35         C527   1.471       .  S
H36          O37   0.966       .  S
O37         Ni45   1.907       .  S
O37         Ni39   1.901       .  S
O37         Ni44   1.902       .  S
O38         Ni39   1.924       .  S
Ni39         O43   1.910       .  S
Ni39         O41   1.922       .  S
O40         Ni45   1.924       .  S
C42          O43   1.268       .  A
C42         C434   1.467       .  S
C47          H48   1.111   1_545  S
C47          C52   1.531       .  S
C47         C677   1.523   1_545  S
C47         C675   1.530   1_545  S
C49          H50   1.111       .  S
C49          C55   1.549       .  S
C49         C678   1.544   1_545  S
C49         C680   1.543   1_545  S
C51         C671   1.527       .  S
C51          C54   1.374       .  D
C51        C1700   1.473       .  S
C52          C55   1.379       .  D
C52        C1685   1.487       .  S
C53         C671   1.525       .  S
C53          C56   1.373       .  D
C53         C416   1.471       .  S
C54         C673   1.546       .  S
C54        C1610   1.484       .  S
C55        C1631   1.484       .  S
C56         C673   1.548       .  S
C56         C401   1.487       .  S
C57          H58   1.111       .  S
C57          C63   1.548       .  S
C57          C62   1.547       .  S
C57          C61   1.552       .  S
C59          H60   1.110       .  S
C59          C65   1.521       .  S
C59          C64   1.529       .  S
C59          C66   1.527       .  S
C61          C64   1.376       .  D
C61         C380   1.483       .  S
C62          C65   1.371       .  D
C62         C398   1.487       .  S
C63          C66   1.377       .  D
C63         C365   1.488       .  S
C64         C329   1.483       .  S
C65         C308   1.471       .  S
C66         C347   1.477       .  S
C67          H68   1.111       .  S
C67          C73   1.550       .  S
C67          C72   1.541       .  S
C67          C71   1.551       .  S
C69          H70   1.109       .  S
C69          C75   1.532       .  S
C69          C74   1.532       .  S
C69          C76   1.526       .  S
C71          C74   1.380       .  D
C71         C257   1.483       .  S
C72          C75   1.372       .  D
C72         C272   1.488       .  S
C73          C76   1.367       .  D
C73         C290   1.474       .  S
C74         C236   1.493       .  S
C75         C218   1.469       .  S
C76         C200   1.484       .  S
C77          H78   1.111       .  S
C77          C83   1.546       .  S
C77         C706   1.544       .  S
C77         C705   1.551       .  S
C79          H80   1.109       .  S
C79          C86   1.527       .  S
C79         C709   1.531       .  S
C79         C708   1.535       .  S
C81         C701   1.546       .  S
C81          C84   1.375       .  D
C81         C275   1.490       .  S
C82         C701   1.555       .  S
C82          C85   1.383       .  D
C82        C1502   1.494   1_455  S
C83          C86   1.368       .  D
C83        C1541   1.481   1_455  S
C84         C703   1.527       .  S
C84         C149   1.474       .  S
C85         C703   1.534       .  S
C85        C1433   1.494   1_455  S
C86        C1412   1.473   1_455  S
O87         Ni93   1.932       .  S
O87         C108   1.271       .  A
O88        Ni111   1.897       .  S
O88          C97   1.264       .  A
O89         Ni93   1.902       .  S
O89        Ni111   1.899       .  S
O89        Ni105   1.913       .  S
O89         H112   0.966       .  S
C90         O107   1.278       .  A
C90          O99   1.277       .  A
C90         C473   1.471       .  S
O91        Ni110   1.931       .  S
O91          C97   1.270       .  A
O92        Ni110   1.912       .  S
O92          C94   1.269       .  A
Ni93         O96   1.927       .  S
Ni93         O98   1.908       .  S
C94         O104   1.268       .  A
C94         C488   1.470       .  S
O95        Ni111   1.919       .  S
O95         C101   1.275       .  A
O96         C101   1.279       .  A
C97         C167   1.455       .  S
O98         C100   1.267       .  A
O99        Ni110   1.920       .  S
C100        O106   1.269       .  A
C100        C146   1.467       .  S
C101        C182   1.471       .  S
H102        O103   0.966       .  S
O103       Ni111   1.909       .  S
O103       Ni105   1.898       .  S
O103       Ni110   1.907       .  S
O104       Ni105   1.919       .  S
Ni105       O109   1.901       .  S
Ni105       O107   1.923       .  S
O106       Ni111   1.916       .  S
C108        O109   1.266       .  A
C108        C509   1.462       .  S
O113       Ni119   1.915       .  S
O113        C134   1.266   1_554  A
O114      Ni1385   1.904       .  S
O114        C123   1.266       .  A
O115       Ni119   1.910       .  S
O115       Ni761   1.909   1_545  S
O115      Ni1379   1.914   1_455  S
O115        H138   0.967       .  S
C116        O133   1.268       .  A
C116        O125   1.275       .  A
C116        C311   1.472       .  S
O117       Ni136   1.935       .  S
O117        C123   1.273       .  A
O118       Ni136   1.904       .  S
O118       C1368   1.269   1_554  A
Ni119       O122   1.911       .  S
Ni119       O124   1.900       .  S
C120        O130   1.279       .  A
C120       O1366   1.276   1_456  A
C120        C344   1.475       .  S
O121       Ni761   1.921   1_545  S
O121        C127   1.274       .  A
O122        C127   1.273       .  A
C123        C203   1.465       .  S
O124       C1374   1.266       .  A
O125       Ni136   1.941   1_556  S
C126        O132   1.275       .  A
C126       O1372   1.269       .  A
C126        C239   1.472       .  S
C127        C221   1.467       .  S
H128        O129   0.965       .  S
O129       Ni136   1.915       .  S
O129      Ni1385   1.923       .  S
O129       Ni755   1.911       .  S
O130      Ni2003   1.949   1_456  S
Ni131      O2002   1.944   1_544  S
Ni131      O1383   1.914   1_554  S
Ni131       O757   1.902   1_544  S
Ni131      O1363   1.907       .  S
Ni131       O753   1.907   1_545  S
O132      Ni2009   1.945   1_545  S
O133       Ni755   1.904   1_556  S
C134        O135   1.265       .  A
C134        C326   1.462       .  S
O135      Ni1379   1.908   1_456  S
Ni137      O1362   1.917   1_455  S
Ni137       O745   1.936       .  S
Ni137      O2004   1.915       .  S
Ni137       O739   1.911       .  S
Ni137      O1377   1.937   1_455  S
C139        C144   1.385       .  A
C139        C140   1.401       .  A
C139        N145   1.340       .  A
C140        C141   1.399       .  A
C140        H151   1.082       .  S
C141        C150   1.378       .  A
C141        C142   1.385       .  A
C142        C143   1.404       .  A
C142        N148   1.340       .  A
C143        C144   1.402       .  A
C143        H152   1.083   1_545  S
C144        C147   1.379       .  A
N145        C146   1.354       .  A
N145        H155   1.045       .  S
C146        C147   1.396       .  A
C147        H153   1.083       .  S
N148        C149   1.355       .  A
N148        H780   1.045   1_545  S
C149        C150   1.393       .  A
C150        H154   1.082       .  S
H156        N772   1.041       .  S
C157        C162   1.385       .  A
C157        C158   1.402       .  A
C157       N1411   1.341       .  A
C158        C159   1.401       .  A
C158       H1417   1.082       .  S
C159        C168   1.377       .  A
C159        C160   1.386       .  A
C160        C161   1.400       .  A
C160        N166   1.340       .  A
C161        C162   1.399       .  A
C161        H170   1.082       .  S
C162        C165   1.374       .  A
N163       C1405   1.338   1_455  A
N163       C1412   1.351   1_455  A
N163        H173   1.042       .  S
C164       C1334   1.465       .  S
C164        C165   1.391       .  A
C164       N1411   1.353       .  A
C165        H171   1.082       .  S
N166        C167   1.352       .  A
N166        H174   1.045       .  S
C167        C168   1.391       .  A
C168        H172   1.082       .  S
H169       C1406   1.083   1_455  S
C175        C180   1.384       .  A
C175        C176   1.412       .  A
C175        N181   1.348       .  A
C176        C177   1.410       .  A
C176        H187   1.082       .  S
C177        C186   1.388       .  A
C177        C178   1.380       .  A
C178        C179   1.397       .  A
C178        N184   1.334       .  A
C179        C180   1.394       .  A
C179        H188   1.083       .  S
C180        C183   1.371       .  A
N181        C182   1.360       .  A
N181        H191   1.045       .  S
C182        C183   1.390       .  A
C183        H189   1.083       .  S
N184        C185   1.356       .  A
N184       H1440   1.040       .  S
C185       C1333   1.499       .  S
C185        C186   1.406       .  A
C186        H190   1.081       .  S
H192       N1432   1.043   1_565  S
C193        C198   1.383       .  A
C193        C194   1.409       .  A
C193        N199   1.350       .  A
C194        C195   1.410       .  A
C194        H205   1.082       .  S
C195        C204   1.384       .  A
C195        C196   1.386       .  A
C196        C197   1.397       .  A
C196        N202   1.341       .  A
C197        C198   1.397       .  A
C197        H206   1.083       .  S
C198        C201   1.367       .  A
N199        C200   1.359       .  A
N199        H209   1.044       .  S
C200        C201   1.389       .  A
C201        H207   1.074       .  S
N202        C203   1.351       .  A
N202       H1458   1.045       .  S
C203        C204   1.398       .  A
C204        H208   1.082       .  S
H210       N1450   1.044   1_455  S
C211        C216   1.385       .  A
C211        C212   1.407       .  A
C211        N217   1.346       .  A
C212        C213   1.407       .  A
C212        H223   1.082       .  S
C213        C222   1.383       .  A
C213        C214   1.385       .  A
C214        C215   1.395       .  A
C214        N220   1.336       .  A
C215        C216   1.393       .  A
C215        H224   1.083       .  S
C216        C219   1.367       .  A
N217        C218   1.357       .  A
N217        H227   1.045       .  S
C218        C219   1.388       .  A
C219        H225   1.083       .  S
N220        C221   1.352       .  A
N220        H228   1.045       .  S
C221        C222   1.398       .  A
C222        H226   1.082       .  S
C229        C234   1.381       .  A
C229        C230   1.398       .  A
C229        N235   1.334       .  A
C230        C231   1.395       .  A
C230        H241   1.083       .  S
C231        C240   1.372       .  A
C231        C232   1.384       .  A
C232        C233   1.410       .  A
C232        N238   1.347       .  A
C233        C234   1.408       .  A
C233        H242   1.082       .  S
C234        C237   1.387       .  A
N235        C236   1.355       .  A
N235        H245   1.038       .  S
C236        C237   1.403       .  A
C237        H243   1.082       .  S
N238        C239   1.359       .  A
N238        H246   1.045       .  S
C239        C240   1.392       .  A
C240       H1492   1.083       .  S
H244       C1488   1.083   1_455  S
C247        C252   1.385       .  A
C247        C248   1.402       .  A
C247       N1501   1.343       .  A
C248        C249   1.401       .  A
C248       H1507   1.082       .  S
C249        C258   1.376       .  A
C249        C250   1.384       .  A
C250        C251   1.407       .  A
C250        N256   1.347       .  A
C251        C252   1.407       .  A
C251        H260   1.082       .  S
C252        C255   1.381       .  A
N253       C1495   1.349   1_455  A
N253       C1502   1.358   1_455  A
N253        H263   1.044       .  S
C254       C1330   1.480       .  S
C254        C255   1.399       .  A
C254       N1501   1.353       .  A
C255        H261   1.082       .  S
N256        C257   1.357       .  A
N256        H264   1.044       .  S
C257        C258   1.395       .  A
C258        H262   1.082       .  S
H259       C1496   1.082   1_455  S
C265        C270   1.383       .  A
C265        C266   1.405       .  A
C265        N271   1.346       .  A
C266        C267   1.405       .  A
C266        H277   1.082       .  S
C267        C276   1.378       .  A
C267        C268   1.383       .  A
C268        C269   1.406       .  A
C268        N274   1.347       .  A
C269        C270   1.406       .  A
C269        H278   1.082       .  S
C270        C273   1.379       .  A
N271        C272   1.356       .  A
N271        H281   1.044       .  S
C272        C273   1.399       .  A
C273        H279   1.082       .  S
N274        C275   1.356       .  A
N274        H282   1.044       .  S
C275        C276   1.399       .  A
C276        H904   1.082       .  S
H280        C900   1.082       .  S
C283        C288   1.384       .  A
C283        C284   1.404       .  A
C283        N289   1.341       .  A
C284        C285   1.402       .  A
C284       H1543   1.082       .  S
C285        C286   1.385       .  A
C285       C1542   1.380       .  A
C286        C287   1.403       .  A
C286        N292   1.340       .  A
C287        C288   1.401       .  A
C287        H296   1.082       .  S
C288        C291   1.380       .  A
N289        C290   1.355       .  A
N289        H299   1.045       .  S
C290        C291   1.393       .  A
C291        H297   1.082       .  S
N292        C293   1.355       .  A
N292        H300   1.043       .  S
C293       C1331   1.474       .  S
C293       C1542   1.393       .  A
C294       C1533   1.377       .  A
C294       C1541   1.397       .  A
C294        H298   1.082   1_655  S
H295       C1532   1.082       .  S
C301        C306   1.385       .  A
C301        C302   1.405       .  A
C301        N307   1.344       .  A
C302        C303   1.404       .  A
C302        H313   1.082       .  S
C303        C312   1.381       .  A
C303        C304   1.385       .  A
C304        C305   1.402       .  A
C304        N310   1.341       .  A
C305        C306   1.400       .  A
C305        H314   1.082       .  S
C306        C309   1.376       .  A
N307        C308   1.354       .  A
N307        H317   1.045       .  S
C308        C309   1.391       .  A
C309        H315   1.082       .  S
N310        C311   1.355       .  A
N310        H318   1.045       .  S
C311        C312   1.397       .  A
C312        H316   1.082       .  S
C319        C324   1.385       .  A
C319        C320   1.396       .  A
C319        N325   1.337       .  A
C320        C321   1.395       .  A
C320        H331   1.083       .  S
C321        C330   1.367       .  A
C321        C322   1.383       .  A
C322        C323   1.407       .  A
C322        N328   1.346       .  A
C323        C324   1.406       .  A
C323        H332   1.082       .  S
C324        C327   1.382       .  A
N325        C326   1.352       .  A
N325        H335   1.045       .  S
C326        C327   1.396       .  A
C327        H333   1.082   1_455  S
N328        C329   1.359       .  A
N328        H336   1.044       .  S
C329        C330   1.393       .  A
C330        H334   1.082       .  S
C337        C342   1.384       .  A
C337        C338   1.408       .  A
C337        N343   1.344       .  A
C338        C339   1.405       .  A
C338        H349   1.082       .  S
C339        C348   1.384       .  A
C339        C340   1.384       .  A
C340        C341   1.402       .  A
C340        N346   1.339       .  A
C341        C342   1.400       .  A
C341        H350   1.082       .  S
C342        C345   1.378       .  A
N343        C344   1.358       .  A
N343        H353   1.045       .  S
C344        C345   1.394       .  A
C345        H351   1.082       .  S
N346        C347   1.354       .  A
N346        H354   1.045       .  S
C347        C348   1.397       .  A
C348        H352   1.082       .  S
C355        C360   1.383       .  A
C355        C356   1.404       .  A
C355        N361   1.346       .  A
C356        C357   1.404       .  A
C356        H367   1.082       .  S
C357        C366   1.378       .  A
C357        C358   1.383       .  A
C358        C359   1.407       .  A
C358        N364   1.347       .  A
C359        C360   1.406       .  A
C359        H368   1.082       .  S
C360        C363   1.380       .  A
N361        C362   1.356       .  A
N361       H1619   1.045   1_455  S
C362       C1302   1.490       .  S
C362        C363   1.400       .  A
C363        H993   1.082       .  S
N364        C365   1.357       .  A
N364        H372   1.045       .  S
C365        C366   1.398       .  A
C366        H370   1.082       .  S
H369        C987   1.082       .  S
H371       N1609   1.045       .  S
C373        C378   1.384       .  A
C373        C374   1.405       .  A
C373        N379   1.346       .  A
C374        C375   1.404       .  A
C374        H385   1.082       .  S
C375        C384   1.378       .  A
C375        C376   1.384       .  A
C376        C377   1.404       .  A
C376        N382   1.345       .  A
C377        C378   1.404       .  A
C377        H386   1.082       .  S
C378        C381   1.378       .  A
N379        C380   1.355       .  A
N379        H389   1.045       .  S
C380        C381   1.397       .  A
C381        H387   1.082       .  S
N382        C383   1.355       .  A
N382        H390   1.045       .  S
C383       C1303   1.480   1_455  S
C383        C384   1.396       .  A
C384       H1636   1.082   1_455  S
H388       C1632   1.082       .  S
C391        C396   1.383       .  A
C391        C392   1.405       .  A
C391        N397   1.348       .  A
C392        C393   1.406       .  A
C392        H403   1.082       .  S
C393        C402   1.376       .  A
C393        C394   1.383       .  A
C394        C395   1.403       .  A
C394        N400   1.347       .  A
C395        C396   1.404       .  A
C395        H404   1.082       .  S
C396        C399   1.374       .  A
N397        C398   1.356       .  A
N397        H407   1.045       .  S
C398        C399   1.398       .  A
C399        H405   1.080       .  S
N400        C401   1.356       .  A
N400       H1032   1.045       .  S
C401        C402   1.398       .  A
C402        H406   1.079       .  S
H408       N1024   1.045   1_545  S
C409        C414   1.385       .  A
C409        C410   1.405       .  A
C409        N415   1.345       .  A
C410        C411   1.405       .  A
C410        H421   1.082       .  S
C411        C420   1.381       .  A
C411        C412   1.385       .  A
C412        C413   1.401       .  A
C412        N418   1.342       .  A
C413        C414   1.400       .  A
C413       H1046   1.082       .  S
C414        C417   1.374       .  A
N415        C416   1.355       .  A
N415        H425   1.045       .  S
C416        C417   1.390       .  A
C417       H1047   1.082       .  S
N418        C419   1.354       .  A
N418        H426   1.045       .  S
C419        C420   1.397       .  A
C420        H424   1.082       .  S
H422       C1037   1.082   1_545  S
H423       C1041   1.082   1_545  S
C427        C432   1.385       .  A
C427        C428   1.405       .  A
C427        N433   1.343       .  A
C428        C429   1.403       .  A
C428        H439   1.082       .  S
C429        C438   1.381       .  A
C429        C430   1.383       .  A
C430        C431   1.401       .  A
C430       N1684   1.339   1_455  A
C431        C432   1.399       .  A
C431        H440   1.083   1_455  S
C432        C435   1.376       .  A
N433        C434   1.355       .  A
N433        H443   1.045       .  S
C434        C435   1.394       .  A
C435        H441   1.083       .  S
N436       C1678   1.341       .  A
N436       C1685   1.357       .  A
N436        H444   1.044       .  S
C437       C1300   1.483   1_455  S
C437        C438   1.398       .  A
C437       N1684   1.356   1_455  A
C438        H442   1.082       .  S
C445        C450   1.385       .  A
C445        C446   1.406       .  A
C445        N451   1.346       .  A
C446        C447   1.405       .  A
C446       H1705   1.082       .  S
C447        C456   1.382       .  A
C447        C448   1.385       .  A
C448        C449   1.400       .  A
C448        N454   1.340       .  A
C449        C450   1.399       .  A
C449       H1082   1.083       .  S
C450        C453   1.373       .  A
N451        C452   1.356       .  A
N451       H1709   1.044   1_455  S
C452       C1299   1.477   1_455  S
C452        C453   1.392       .  A
C453       H1083   1.083       .  S
N454        C455   1.355       .  A
N454        H462   1.045       .  S
C455        C456   1.397       .  A
C456        H460   1.082       .  S
H457       C1694   1.082       .  S
H458       C1073   1.083   1_545  S
H459       C1077   1.083   1_545  S
H461       N1699   1.044       .  S
C463        C468   1.385       .  A
C463        C464   1.399       .  A
C463        N469   1.338       .  A
C464        C465   1.398       .  A
C464        H475   1.083       .  S
C465        C474   1.372       .  A
C465        C466   1.384       .  A
C466        C467   1.406       .  A
C466        N472   1.346       .  A
C467        C468   1.405       .  A
C467        H476   1.082       .  S
C468        C471   1.382       .  A
N469        C470   1.353       .  A
N469        H479   1.045       .  S
C470        C471   1.397       .  A
C471        H477   1.082       .  S
N472        C473   1.357       .  A
N472        H480   1.045       .  S
C473        C474   1.394       .  A
C474        H478   1.083       .  S
C481       C1734   1.385       .  A
C481       C1730   1.403       .  A
C481        N487   1.343       .  A
C482        C483   1.406       .  A
C482       C1729   1.406   1_455  A
C482        H493   1.082       .  S
C483        C492   1.381       .  A
C483        C484   1.385       .  A
C484        C485   1.400       .  A
C484        N490   1.341       .  A
C485        C486   1.399   1_455  A
C485        H494   1.082       .  S
C486       C1729   1.385       .  A
C486       C1737   1.373       .  A
N487        C488   1.355       .  A
N487        H497   1.045       .  S
C488        C489   1.395       .  A
C489       C1734   1.380       .  A
C489        H495   1.082       .  S
N490        C491   1.352       .  A
N490        H498   1.045       .  S
C491        C492   1.396       .  A
C492        H496   1.082       .  S
C499        C504   1.384       .  A
C499        C500   1.403       .  A
C499        N505   1.344       .  A
C500       C1125   1.403       .  A
C500        H511   1.082       .  S
C501        C510   1.377       .  A
C501        C502   1.386       .  A
C501       C1124   1.403       .  A
C502       C1127   1.398   1_545  A
C502        N508   1.339       .  A
C503        C504   1.397       .  A
C503       C1126   1.398       .  A
C503        H512   1.083       .  S
C504        C507   1.370       .  A
N505        C506   1.356       .  A
N505        H515   1.044       .  S
C506        C507   1.391       .  A
C507        H513   1.082       .  S
N508        C509   1.353       .  A
N508        H516   1.045       .  S
C509        C510   1.394       .  A
C510        H514   1.082       .  S
C517        C522   1.384       .  A
C517        C518   1.408       .  A
C517        N523   1.347       .  A
C518        C519   1.408       .  A
C518        H529   1.082       .  S
C519        C528   1.384       .  A
C519        C520   1.385       .  A
C520        C521   1.398       .  A
C520        N526   1.339       .  A
C521        C522   1.397       .  A
C521        H530   1.083       .  S
C522        C525   1.370       .  A
N523        C524   1.359       .  A
N523        H533   1.044       .  S
C524        C525   1.392       .  A
C525        H531   1.083       .  S
N526        C527   1.354       .  A
N526        H534   1.045       .  S
C527        C528   1.399       .  A
C528        H532   1.082       .  S
C535        C540   1.385       .  A
C535        C536   1.400       .  A
C535        N541   1.340       .  A
C536       C1785   1.399       .  A
C536       H1795   1.082       .  S
C537        C546   1.375       .  A
C537        C538   1.385       .  A
C537       C1784   1.401   1_455  A
C538       C1787   1.404   1_455  A
C538        N544   1.345       .  A
C539        C540   1.403       .  A
C539       C1786   1.404       .  A
C539        H548   1.082       .  S
C540        C543   1.378       .  A
N541        C542   1.352       .  A
N541        H551   1.045       .  S
C542        C543   1.393       .  A
C543        H549   1.082       .  S
N544        C545   1.356       .  A
N544        H552   1.045       .  S
C545        C546   1.394       .  A
C546        H550   1.082       .  S
H547       C1784   1.082       .  S
C553        C558   1.384       .  A
C553        C554   1.399       .  A
C553        N559   1.337       .  A
C554       C1179   1.396       .  A
C554        H565   1.083       .  S
C555        C564   1.375       .  A
C555       C1178   1.398       .  A
C555       C1180   1.385       .  A
C556        C557   1.405       .  A
C556       C1179   1.385   1_565  A
C556       N1186   1.342       .  A
C557        C558   1.403   1_565  A
C557        H566   1.082       .  S
C558        C561   1.380       .  A
N559        C560   1.354       .  A
N559        H569   1.044       .  S
C560        C561   1.397       .  A
C561        H567   1.082       .  S
N562        C563   1.356       .  A
N562       C1180   1.344       .  A
N562        H570   1.045       .  S
C563        C564   1.392       .  A
C564        H568   1.082       .  S
C571        C576   1.384       .  A
C571        C572   1.403       .  A
C571        N577   1.343       .  A
C572        C573   1.402       .  A
C572        H583   1.082       .  S
C573        C582   1.376       .  A
C573        C574   1.384       .  A
C574        C575   1.404       .  A
C574        N580   1.344       .  A
C575        C576   1.403       .  A
C575        H584   1.082       .  S
C576        C579   1.377       .  A
N577        C578   1.356       .  A
N577        H587   1.044       .  S
C578        C579   1.395       .  A
C579        H585   1.082       .  S
N580        C581   1.357       .  A
N580        H588   1.044       .  S
C581        C582   1.394       .  A
C582        H586   1.082       .  S
C589        C594   1.384       .  A
C589       C1214   1.408   1_545  A
C589        N595   1.346       .  A
C590        C591   1.403       .  A
C590       C1213   1.404       .  A
C590        H601   1.082       .  S
C591        C600   1.379       .  A
C591        C592   1.384       .  A
C592       C1217   1.404       .  A
C592        N598   1.343       .  A
C593        C594   1.404       .  A
C593       C1216   1.405   1_545  A
C593        H602   1.082       .  S
C594        C597   1.381       .  A
N595        C596   1.358       .  A
N595        H605   1.045       .  S
C596        C597   1.394       .  A
C597        H603   1.082       .  S
N598        C599   1.357       .  A
N598        H606   1.044       .  S
C599        C600   1.394       .  A
C600        H604   1.082       .  S
C607        C612   1.384       .  A
C607       C1856   1.403   1_455  A
C607        N613   1.342       .  A
C608        C609   1.400       .  A
C608       C1855   1.402       .  A
C608        H619   1.082       .  S
C609        C618   1.377       .  A
C609        C610   1.383       .  A
C610       C1859   1.406       .  A
C610        N616   1.343       .  A
C611        C612   1.402       .  A
C611       C1858   1.404   1_455  A
C611        H620   1.082       .  S
C612        C615   1.379       .  A
N613        C614   1.356       .  A
N613        H623   1.043       .  S
C614        C615   1.395       .  A
C615        H621   1.082       .  S
N616        C617   1.358       .  A
N616        H624   1.042       .  S
C617        C618   1.393       .  A
C618        H622   1.082       .  S
C625        H626   1.111       .  S
C625        C631   1.546       .  S
C625        C630   1.542       .  S
C625        C629   1.542       .  S
C627        H628   1.111       .  S
C627        C633   1.531       .  S
C627        C632   1.527       .  S
C627        C634   1.529       .  S
C629        C632   1.371       .  D
C629       C1241   1.483       .  S
C630        C633   1.372       .  D
C630       C1202   1.480       .  S
C631        C634   1.375       .  D
C631       C1220   1.479       .  S
C632       C1166   1.469       .  S
C633       C1148   1.473       .  S
C634       C1184   1.482       .  S
C635        H636   1.111       .  S
C635        C641   1.524       .  S
C635        C640   1.532       .  S
C635        C639   1.530       .  S
C637        H638   1.111       .  S
C637        C643   1.545       .  S
C637        C642   1.541       .  S
C637        C644   1.542       .  S
C639        C642   1.374       .  D
C639       C1094   1.480       .  S
C640        C643   1.376       .  D
C640       C1130   1.479       .  S
C641        C644   1.369       .  D
C641       C1115   1.469       .  S
C642       C1205   1.477       .  S
C643       C1223   1.486       .  S
C644       C1238   1.479       .  S
O645       Ni651   1.930       .  S
O645        C666   1.272       .  A
O646       Ni669   1.896       .  S
O646        C655   1.264       .  A
O647       Ni651   1.897       .  S
O647       Ni669   1.894       .  S
O647       Ni663   1.907       .  S
O647        H670   0.967       .  S
C648        O665   1.278       .  A
C648        O657   1.278       .  A
C648       C1079   1.468       .  S
O649       Ni668   1.933       .  S
O649        C655   1.273       .  A
O650       Ni668   1.912       .  S
O650        C652   1.268       .  A
Ni651       O654   1.918       .  S
Ni651       O656   1.907       .  S
C652        O662   1.267       .  A
C652       C1043   1.466       .  S
O653       Ni669   1.923       .  S
O653        C659   1.277       .  A
O654        C659   1.278       .  A
C655       C1187   1.461       .  S
O656        C658   1.268       .  A
O657       Ni668   1.920       .  S
C658        O664   1.270       .  A
C658       C1169   1.469       .  S
C659       C1151   1.469       .  S
H660        O661   0.966       .  S
O661       Ni669   1.906       .  S
O661       Ni663   1.896       .  S
O661       Ni668   1.902       .  S
O662       Ni663   1.914       .  S
Ni663       O667   1.899       .  S
Ni663       O665   1.922       .  S
O664       Ni669   1.924       .  S
C666        O667   1.265       .  A
C666       C1058   1.462       .  S
C671        H672   1.112       .  S
C671        C676   1.526       .  S
C673        H674   1.111       .  S
C673        C679   1.552       .  S
C675        C678   1.374       .  D
C675       C2324   1.479       .  S
C676        C679   1.375       .  D
C676       C2309   1.480       .  S
C677        C680   1.370       .  D
C677       C1040   1.466       .  S
C678       C2234   1.480       .  S
C679       C2255   1.485       .  S
C680       C1025   1.483       .  S
C681        H682   1.111       .  S
C681        C687   1.545       .  S
C681        C686   1.541       .  S
C681        C685   1.548       .  S
C683        H684   1.111       .  S
C683        C689   1.522       .  S
C683        C688   1.533       .  S
C683        C690   1.523       .  S
C685        C688   1.376       .  D
C685       C1004   1.483       .  S
C686        C689   1.370       .  D
C686       C1022   1.481       .  S
C687        C690   1.370       .  D
C687        C989   1.478       .  S
C688        C953   1.482       .  S
C689        C932   1.466       .  S
C690        C971   1.470       .  S
C691        H692   1.111       .  S
C691        C697   1.548       .  S
C691        C696   1.550       .  S
C691        C695   1.545       .  S
C693        H694   1.111       .  S
C693        C699   1.533       .  S
C693        C698   1.525       .  S
C693        C700   1.520       .  S
C695        C698   1.373       .  D
C695        C881   1.481       .  S
C696        C699   1.379       .  D
C696        C896   1.485       .  S
C697        C700   1.368       .  D
C697        C914   1.481       .  S
C698        C860   1.474       .  S
C699        C842   1.487       .  S
C700        C824   1.469       .  S
C701        H702   1.111       .  S
C701        C707   1.552   1_545  S
C703        H704   1.110       .  S
C703        C710   1.521   1_545  S
C705        C708   1.382       .  D
C705        C899   1.486       .  S
C706        C709   1.373       .  D
C706       C2126   1.489   1_455  S
C707        C710   1.369       .  D
C707       C2165   1.483   1_455  S
C708        C773   1.492       .  S
C709       C2057   1.477   1_455  S
C710       C2036   1.471   1_455  S
O711       Ni717   1.933       .  S
O711        C732   1.270       .  A
O712       Ni735   1.901       .  S
O712        C721   1.263       .  A
O713       Ni717   1.907       .  S
O713       Ni735   1.909       .  S
O713       Ni729   1.910       .  S
O713        H736   0.966       .  S
C714        O731   1.276       .  A
C714        O723   1.275       .  A
C714       C1097   1.475       .  S
O715       Ni734   1.917       .  S
O715        C721   1.267       .  A
O716       Ni734   1.903       .  S
O716        C718   1.267       .  A
Ni717       O720   1.928       .  S
Ni717       O722   1.900       .  S
C718        O728   1.268       .  A
C718       C1112   1.461       .  S
O719       Ni735   1.909       .  S
O719        C725   1.273       .  A
O720        C725   1.277       .  A
C721        C791   1.456       .  S
O722        C724   1.267       .  A
O723       Ni734   1.915       .  S
C724        O730   1.269       .  A
C724        C770   1.468       .  S
C725        C806   1.469       .  S
H726        O727   0.966       .  S
O727       Ni735   1.921       .  S
O727       Ni729   1.904       .  S
O727       Ni734   1.910       .  S
O728       Ni729   1.915       .  S
Ni729       O733   1.898       .  S
Ni729       O731   1.928       .  S
O730       Ni735   1.928       .  S
C732        O733   1.264       .  A
C732       C1133   1.461       .  S
O737       Ni743   1.927       .  S
O737        C758   1.269   1_554  A
O738      Ni2009   1.899       .  S
O738        C747   1.266       .  A
O739       Ni743   1.912       .  S
O739      Ni2003   1.911   1_455  S
O739        H762   0.968       .  S
C740        O757   1.263       .  A
C740        O749   1.270       .  A
C740        C935   1.460       .  S
O741       Ni760   1.925       .  S
O741        C747   1.271       .  A
O742       Ni760   1.914       .  S
O742       C1992   1.275   1_554  A
Ni743       O746   1.916       .  S
Ni743       O748   1.909       .  S
C744       O1990   1.266   1_455  A
C744        O754   1.271       .  A
C744        C968   1.467       .  S
O745        C751   1.279       .  A
O746        C751   1.274       .  A
C747        C827   1.463       .  S
O748       C1998   1.269       .  A
O749       Ni760   1.938   1_556  S
C750       O1996   1.268       .  A
C750        O756   1.267       .  A
C750        C863   1.467       .  S
C751        C845   1.479       .  S
H752        O753   0.968       .  S
O753      Ni2009   1.927       .  S
O753       Ni760   1.921       .  S
O754      Ni1379   1.934   1_466  S
Ni755      O1378   1.944   1_554  S
Ni755      O2007   1.904   1_554  S
Ni755      O1987   1.915       .  S
O756      Ni1385   1.913       .  S
C758        O759   1.266       .  A
C758        C950   1.470       .  S
O759      Ni2003   1.911   1_456  S
Ni761      O1986   1.900   1_455  S
Ni761      O1380   1.912   1_465  S
Ni761      O2001   1.909   1_455  S
C763        C768   1.384       .  A
C763        C764   1.408       .  A
C763        N769   1.346       .  A
C764        C765   1.407       .  A
C764        H775   1.082       .  S
C765        C774   1.384       .  A
C765        C766   1.381       .  A
C766        C767   1.398       .  A
C766        N772   1.336       .  A
C767        C768   1.395       .  A
C767        H776   1.083       .  S
C768        C771   1.371       .  A
N769        C770   1.358       .  A
N769        H779   1.045       .  S
C770        C771   1.391       .  A
C771        H777   1.083       .  S
N772        C773   1.356       .  A
C773        C774   1.402       .  A
C774        H778   1.081       .  S
C781        C786   1.384       .  A
C781        C782   1.405       .  A
C781       N2035   1.346       .  A
C782        C783   1.405       .  A
C782       H2041   1.082       .  S
C783        C792   1.380       .  A
C783        C784   1.386       .  A
C784        C785   1.394       .  A
C784        N790   1.337       .  A
C785        C786   1.394       .  A
C785        H794   1.083       .  S
C786        C789   1.364       .  A
N787       C2029   1.348       .  A
N787       C2036   1.357       .  A
N787        H797   1.045   1_655  S
C788       C1958   1.473       .  S
C788        C789   1.388       .  A
C788       N2035   1.357       .  A
C789        H795   1.077       .  S
N790        C791   1.350       .  A
N790        H798   1.045       .  S
C791        C792   1.395       .  A
C792        H796   1.082       .  S
H793       C2030   1.082       .  S
C799        C804   1.385       .  A
C799        C800   1.405       .  A
C799        N805   1.345       .  A
C800        C801   1.405       .  A
C800        H811   1.082       .  S
C801        C810   1.380       .  A
C801        C802   1.385       .  A
C802        C803   1.399       .  A
C802        N808   1.339       .  A
C803        C804   1.398       .  A
C803        H812   1.083       .  S
C804        C807   1.372       .  A
N805        C806   1.357       .  A
N805        H815   1.045       .  S
C806        C807   1.393       .  A
C807        H813   1.083       .  S
N808        C809   1.353       .  A
N808       H2064   1.045       .  S
C809       C1957   1.475       .  S
C809        C810   1.396       .  A
C810        H814   1.082       .  S
H816       N2056   1.045       .  S
C817        C822   1.385       .  A
C817        C818   1.401       .  A
C817        N823   1.340       .  A
C818        C819   1.400       .  A
C818        H829   1.082       .  S
C819        C828   1.376       .  A
C819        C820   1.385       .  A
C820        C821   1.403       .  A
C820        N826   1.343       .  A
C821        C822   1.402       .  A
C821        H830   1.082       .  S
C822        C825   1.378       .  A
N823        C824   1.352       .  A
N823        H833   1.045       .  S
C824        C825   1.393       .  A
C825        H831   1.082       .  S
N826        C827   1.354       .  A
N826       H2082   1.045       .  S
C827        C828   1.393       .  A
C828        H832   1.082       .  S
H834       N2074   1.045       .  S
C835        C840   1.383       .  A
C835        C836   1.411       .  A
C835        N841   1.351       .  A
C836        C837   1.411       .  A
C836        H847   1.082       .  S
C837        C846   1.389       .  A
C837        C838   1.384       .  A
C838        C839   1.400       .  A
C838        N844   1.340       .  A
C839        C840   1.398       .  A
C839        H848   1.083       .  S
C840        C843   1.370       .  A
N841        C842   1.360       .  A
N841        H851   1.044       .  S
C842        C843   1.394       .  A
C843        H849   1.082       .  S
N844        C845   1.356       .  A
N844        H852   1.045       .  S
C845        C846   1.400       .  A
C846        H850   1.082       .  S
C853        C858   1.385       .  A
C853        C854   1.400       .  A
C853        N859   1.338       .  A
C854        C855   1.398       .  A
C854        H865   1.082       .  S
C855        C864   1.375       .  A
C855        C856   1.385       .  A
C856        C857   1.405       .  A
C856        N862   1.343       .  A
C857        C858   1.403       .  A
C857        H866   1.082       .  S
C858        C861   1.381       .  A
N859        C860   1.353       .  A
N859        H869   1.045       .  S
C860        C861   1.396       .  A
C861        H867   1.082       .  S
N862        C863   1.357       .  A
N862        H870   1.045       .  S
C863        C864   1.392       .  A
C864       H2116   1.082       .  S
H868       C2112   1.083       .  S
C871        C876   1.385       .  A
C871        C872   1.402       .  A
C871       N2125   1.344       .  A
C872        C873   1.403       .  A
C872       H2131   1.082       .  S
C873        C882   1.375       .  A
C873        C874   1.384       .  A
C874        C875   1.403       .  A
C874        N880   1.345       .  A
C875        C876   1.403       .  A
C875        H884   1.082       .  S
C876        C879   1.375       .  A
N877       C2119   1.345       .  A
N877       C2126   1.355       .  A
N877        H887   1.044   1_655  S
C878       C1954   1.477       .  S
C878        C879   1.396       .  A
C878       N2125   1.354       .  A
C879        H885   1.082       .  S
N880        C881   1.355       .  A
N880        H888   1.044       .  S
C881        C882   1.396       .  A
C882        H886   1.082       .  S
H883       C2120   1.082   1_455  S
C889        C894   1.384       .  A
C889        C890   1.405       .  A
C889        N895   1.345       .  A
C890        C891   1.404       .  A
C890        H901   1.082       .  S
C891        C900   1.379       .  A
C891        C892   1.384       .  A
C892        C893   1.406       .  A
C892        N898   1.346       .  A
C893        C894   1.406       .  A
C893        H902   1.082       .  S
C894        C897   1.381       .  A
N895        C896   1.356       .  A
N895        H905   1.044       .  S
C896        C897   1.398       .  A
C897        H903   1.082       .  S
N898        C899   1.356       .  A
N898        H906   1.044       .  S
C899        C900   1.398       .  A
C907        C912   1.384       .  A
C907        C908   1.405       .  A
C907        N913   1.341       .  A
C908        C909   1.402       .  A
C908       H2167   1.083       .  S
C909       C2166   1.381       .  A
C909        C910   1.384       .  A
C910        C911   1.406       .  A
C910        N916   1.343       .  A
C911        C912   1.404       .  A
C911        H920   1.082       .  S
C912        C915   1.384       .  A
N913        C914   1.356       .  A
N913        H923   1.043       .  S
C914        C915   1.394       .  A
C915        H921   1.082       .  S
N916        C917   1.356       .  A
N916        H924   1.044       .  S
C917       C1955   1.479       .  S
C917       C2166   1.394       .  A
C918       C2157   1.383   1_455  A
C918       C2165   1.395   1_455  A
C918        H922   1.082       .  S
H919       C2156   1.082   1_455  S
C925        C930   1.386       .  A
C925        C926   1.403       .  A
C925        N931   1.343       .  A
C926        C927   1.402       .  A
C926        H937   1.082       .  S
C927        C936   1.378       .  A
C927        C928   1.386       .  A
C928        C929   1.399       .  A
C928        N934   1.340       .  A
C929        C930   1.397       .  A
C929        H938   1.082       .  S
C930        C933   1.372       .  A
N931        C932   1.354       .  A
N931        H941   1.045       .  S
C932        C933   1.389       .  A
C933        H939   1.082       .  S
N934        C935   1.352       .  A
N934        H942   1.045       .  S
C935        C936   1.393       .  A
C936        H940   1.082       .  S
C943        C948   1.385       .  A
C943        C944   1.398       .  A
C943        N949   1.339       .  A
C944        C945   1.396       .  A
C944        H955   1.083       .  S
C945        C954   1.369       .  A
C945        C946   1.383       .  A
C946        C947   1.408       .  A
C946        N952   1.347       .  A
C947        C948   1.408       .  A
C947        H956   1.082       .  S
C948        C951   1.385       .  A
N949        C950   1.353       .  A
N949        H959   1.045       .  S
C950        C951   1.399       .  A
C951        H957   1.082       .  S
N952        C953   1.359       .  A
N952        H960   1.044       .  S
C953        C954   1.393       .  A
C954        H958   1.082       .  S
C961        C966   1.385       .  A
C961        C962   1.407       .  A
C961        N967   1.347       .  A
C962        C963   1.407       .  A
C962        H973   1.082       .  S
C963        C972   1.382       .  A
C963        C964   1.385       .  A
C964        C965   1.395       .  A
C964        N970   1.336       .  A
C965        C966   1.394       .  A
C965        H974   1.083       .  S
C966        C969   1.368       .  A
N967        C968   1.358       .  A
N967        H977   1.045       .  S
C968        C969   1.391       .  A
C969        H975   1.083       .  S
N970        C971   1.350       .  A
N970        H978   1.045       .  S
C971        C972   1.397       .  A
C972        H976   1.082       .  S
C979        C984   1.384       .  A
C979        C980   1.405       .  A
C979        N985   1.344       .  A
C980        C981   1.404       .  A
C980        H991   1.082       .  S
C981        C990   1.378       .  A
C981        C982   1.384       .  A
C982        C983   1.401       .  A
C982        N988   1.342       .  A
C983        C984   1.400       .  A
C983        H992   1.082       .  S
C984        C987   1.375       .  A
N985        C986   1.356       .  A
N985       H2243   1.045   1_455  S
C986       C1926   1.478   1_455  S
C986        C987   1.394       .  A
N988        C989   1.353       .  A
N988        H996   1.045       .  S
C989        C990   1.398       .  A
C990        H994   1.082       .  S
H995       N2233   1.045       .  S
C997       C1002   1.384       .  A
C997        C998   1.403       .  A
C997       N1003   1.344       .  A
C998        C999   1.403       .  A
C998       H1009   1.082       .  S
C999       C1008   1.377       .  A
C999       C1000   1.384       .  A
C1000      C1001   1.407       .  A
C1000      N1006   1.348       .  A
C1001      C1002   1.407       .  A
C1001      H1010   1.082       .  S
C1002      C1005   1.382       .  A
N1003      C1004   1.354       .  A
N1003      H1013   1.045       .  S
C1004      C1005   1.399       .  A
C1005      H1011   1.082       .  S
N1006      C1007   1.357       .  A
N1006      H1014   1.045       .  S
C1007      C1927   1.484   1_455  S
C1007      C1008   1.396       .  A
C1008      H2260   1.082   1_455  S
H1012      C2256   1.082       .  S
C1015      C1020   1.384       .  A
C1015      C1016   1.402       .  A
C1015      N1021   1.344       .  A
C1016      C1017   1.402       .  A
C1016      H1027   1.082       .  S
C1017      C1026   1.374       .  A
C1017      C1018   1.384       .  A
C1018      C1019   1.404       .  A
C1018      N1024   1.346       .  A
C1019      C1020   1.405       .  A
C1019      H1028   1.082       .  S
C1020      C1023   1.376       .  A
N1021      C1022   1.354       .  A
N1021      H1031   1.045       .  S
C1022      C1023   1.398       .  A
C1023      H1029   1.082       .  S
N1024      C1025   1.356       .  A
C1025      C1026   1.396       .  A
C1026      H1030   1.080       .  S
C1033      C1038   1.385       .  A
C1033      C1034   1.403       .  A
C1033      N1039   1.343       .  A
C1034      C1035   1.403       .  A
C1034      H1045   1.082       .  S
C1035      C1044   1.377       .  A
C1035      C1036   1.385       .  A
C1036      C1037   1.400       .  A
C1036      N1042   1.341       .  A
C1037      C1038   1.399       .  A
C1038      C1041   1.372       .  A
N1039      C1040   1.354       .  A
N1039      H1049   1.045       .  S
C1040      C1041   1.389       .  A
N1042      C1043   1.354       .  A
N1042      H1050   1.045       .  S
C1043      C1044   1.396       .  A
C1044      H1048   1.082       .  S
C1051      C1056   1.385       .  A
C1051      C1052   1.405       .  A
C1051      N1057   1.343       .  A
C1052      C1053   1.404       .  A
C1052      H1063   1.082       .  S
C1053      C1062   1.381       .  A
C1053      C1054   1.384       .  A
C1054      C1055   1.398       .  A
C1054      N2308   1.336   1_455  A
C1055      C1056   1.396       .  A
C1055      H1064   1.083   1_455  S
C1056      C1059   1.372       .  A
N1057      C1058   1.356       .  A
N1057      H1067   1.045       .  S
C1058      C1059   1.390       .  A
C1059      H1065   1.083       .  S
N1060      C2302   1.338       .  A
N1060      C2309   1.354       .  A
N1060      H1068   1.044       .  S
C1061      C1924   1.478   1_455  S
C1061      C1062   1.398       .  A
C1061      N2308   1.354   1_455  A
C1062      H1066   1.082       .  S
C1069      C1074   1.384       .  A
C1069      C1070   1.408       .  A
C1069      N1075   1.348       .  A
C1070      C1071   1.408       .  A
C1070      H2329   1.082       .  S
C1071      C1080   1.383       .  A
C1071      C1072   1.385       .  A
C1072      C1073   1.395       .  A
C1072      N1078   1.338       .  A
C1073      C1074   1.394       .  A
C1074      C1077   1.366       .  A
N1075      C1076   1.358       .  A
N1075      H2333   1.044       .  S
C1076      C1923   1.476   1_455  S
C1076      C1077   1.389       .  A
N1078      C1079   1.352       .  A
N1078      H1086   1.045       .  S
C1079      C1080   1.398       .  A
C1080      H1084   1.082       .  S
H1081      C2318   1.082       .  S
H1085      N2323   1.044       .  S
C1087      C1092   1.385       .  A
C1087      C1088   1.398       .  A
C1087      N1093   1.338       .  A
C1088      C1089   1.396       .  A
C1088      H1099   1.082       .  S
C1089      C1098   1.371       .  A
C1089      C1090   1.384       .  A
C1090      C1091   1.410       .  A
C1090      N1096   1.349       .  A
C1091      C1092   1.410       .  A
C1091      H1100   1.082       .  S
C1092      C1095   1.387       .  A
N1093      C1094   1.351       .  A
N1093      H1103   1.045       .  S
C1094      C1095   1.400       .  A
C1095      H1101   1.082       .  S
N1096      C1097   1.359       .  A
N1096      H1104   1.045       .  S
C1097      C1098   1.393       .  A
C1098      H1102   1.083       .  S
C1105      C2358   1.385       .  A
C1105      C2354   1.401       .  A
C1105      N1111   1.342       .  A
C1106      C2353   1.401   1_455  A
C1106      C1107   1.399       .  A
C1106      H1117   1.082   1_455  S
C1107      C1116   1.376       .  A
C1107      C1108   1.385       .  A
C1108      C1109   1.403       .  A
C1108      N1114   1.341       .  A
C1109      C1110   1.402   1_455  A
C1109      H1118   1.082       .  S
C1110      C2353   1.385       .  A
C1110      C2361   1.378       .  A
N1111      C1112   1.354       .  A
N1111      H1121   1.045       .  S
C1112      C1113   1.392       .  A
C1113      C2358   1.372       .  A
C1113      H1119   1.082       .  S
N1114      C1115   1.354       .  A
N1114      H1122   1.045       .  S
C1115      C1116   1.391       .  A
C1116      H1120   1.082       .  S
C1123      C1128   1.383       .  A
C1123      C1124   1.403   1_565  A
C1123      N1129   1.344       .  A
C1124      H1135   1.082       .  S
C1125      C1134   1.378       .  A
C1125      C1126   1.386       .  A
C1126      N1132   1.340       .  A
C1127      C1128   1.397       .  A
C1127      H1136   1.083       .  S
C1128      C1131   1.368       .  A
N1129      C1130   1.357       .  A
N1129      H1139   1.044       .  S
C1130      C1131   1.393       .  A
C1131      H1137   1.082       .  S
N1132      C1133   1.353       .  A
N1132      H1140   1.045       .  S
C1133      C1134   1.394       .  A
C1134      H1138   1.082       .  S
C1141      C1146   1.385       .  A
C1141      C1142   1.409       .  A
C1141      N1147   1.348       .  A
C1142      C1143   1.409       .  A
C1142      H1153   1.082       .  S
C1143      C1152   1.385       .  A
C1143      C1144   1.385       .  A
C1144      C1145   1.395       .  A
C1144      N1150   1.337       .  A
C1145      C1146   1.394       .  A
C1145      H1154   1.082       .  S
C1146      C1149   1.368       .  A
N1147      C1148   1.358       .  A
N1147      H1157   1.045       .  S
C1148      C1149   1.387       .  A
C1149      H1155   1.083       .  S
N1150      C1151   1.352       .  A
N1150      H1158   1.045       .  S
C1151      C1152   1.399       .  A
C1152      H1156   1.082       .  S
C1159      C1164   1.385       .  A
C1159      C1160   1.402       .  A
C1159      N1165   1.341       .  A
C1160      C2409   1.401       .  A
C1160      H2419   1.082       .  S
C1161      C2408   1.400   1_455  A
C1161      C1170   1.375       .  A
C1161      C1162   1.385       .  A
C1162      C2411   1.404   1_455  A
C1162      N1168   1.344       .  A
C1163      C2410   1.403       .  A
C1163      C1164   1.402       .  A
C1163      H1172   1.082       .  S
C1164      C1167   1.378       .  A
N1165      C1166   1.353       .  A
N1165      H1175   1.044       .  S
C1166      C1167   1.392       .  A
C1167      H1173   1.082       .  S
N1168      C1169   1.356       .  A
N1168      H1176   1.045       .  S
C1169      C1170   1.394       .  A
C1170      H1174   1.083       .  S
H1171      C2408   1.082       .  S
C1177      C1182   1.383       .  A
C1177      C1178   1.400       .  A
C1177      N1183   1.338       .  A
C1178      H1189   1.082       .  S
C1179      C1188   1.373   1_545  A
C1180      C1181   1.406       .  A
C1181      C1182   1.404       .  A
C1181      H1190   1.082       .  S
C1182      C1185   1.382       .  A
N1183      C1184   1.354       .  A
N1183      H1193   1.044       .  S
C1184      C1185   1.399       .  A
C1185      H1191   1.082       .  S
N1186      C1187   1.356       .  A
N1186      H1194   1.045       .  S
C1187      C1188   1.391       .  A
C1188      H1192   1.083   1_565  S
C1195      C1200   1.384       .  A
C1195      C1196   1.404       .  A
C1195      N1201   1.343       .  A
C1196      C1197   1.403       .  A
C1196      H1207   1.082       .  S
C1197      C1206   1.377       .  A
C1197      C1198   1.384       .  A
C1198      C1199   1.401       .  A
C1198      N1204   1.341       .  A
C1199      C1200   1.400       .  A
C1199      H1208   1.082       .  S
C1200      C1203   1.376       .  A
N1201      C1202   1.357       .  A
N1201      H1211   1.044       .  S
C1202      C1203   1.393       .  A
C1203      H1209   1.082       .  S
N1204      C1205   1.355       .  A
N1204      H1212   1.044       .  S
C1205      C1206   1.395       .  A
C1206      H1210   1.083       .  S
C1213      C1218   1.384       .  A
C1213      N1219   1.343       .  A
C1214      C1215   1.407       .  A
C1214      H1225   1.082       .  S
C1215      C1224   1.383       .  A
C1215      C1216   1.384       .  A
C1216      N1222   1.345       .  A
C1217      C1218   1.403       .  A
C1217      H1226   1.082       .  S
C1218      C1221   1.380       .  A
N1219      C1220   1.356       .  A
N1219      H1229   1.045       .  S
C1220      C1221   1.394       .  A
C1221      H1227   1.082       .  S
N1222      C1223   1.356       .  A
N1222      H1230   1.045       .  S
C1223      C1224   1.396       .  A
C1224      H1228   1.082       .  S
C1231      C1236   1.384       .  A
C1231      C2480   1.403   1_455  A
C1231      N1237   1.340       .  A
C1232      C2479   1.406       .  A
C1232      C1233   1.404       .  A
C1232      H1243   1.082       .  S
C1233      C1242   1.382       .  A
C1233      C1234   1.384       .  A
C1234      C2483   1.406       .  A
C1234      N1240   1.343       .  A
C1235      C2482   1.404   1_455  A
C1235      C1236   1.402       .  A
C1235      H1244   1.082       .  S
C1236      C1239   1.380       .  A
N1237      C1238   1.356       .  A
N1237      H1247   1.042       .  S
C1238      C1239   1.394       .  A
C1239      H1245   1.082       .  S
N1240      C1241   1.356       .  A
N1240      H1248   1.043       .  S
C1241      C1242   1.395       .  A
C1242      H1246   1.082       .  S
C1249      H1250   1.111       .  S
C1249      C1255   1.547       .  S
C1249      C1254   1.542       .  S
C1249      C1253   1.543       .  S
C1251      H1252   1.111       .  S
C1251      C1257   1.532       .  S
C1251      C1256   1.528       .  S
C1251      C1258   1.529       .  S
C1253      C1256   1.372       .  D
C1253      C1865   1.481       .  S
C1254      C1257   1.375       .  D
C1254      C1826   1.486       .  S
C1255      C1258   1.374       .  D
C1255      C1844   1.476       .  S
C1256      C1790   1.472       .  S
C1257      C1772   1.473       .  S
C1258      C1808   1.486       .  S
C1259      H1260   1.111       .  S
C1259      C1265   1.528       .  S
C1259      C1264   1.532       .  S
C1259      C1263   1.531       .  S
C1261      H1262   1.111       .  S
C1261      C1267   1.547       .  S
C1261      C1266   1.542       .  S
C1261      C1268   1.545       .  S
C1263      C1266   1.372       .  D
C1263      C1718   1.475       .  S
C1264      C1267   1.375       .  D
C1264      C1754   1.480       .  S
C1265      C1268   1.373       .  D
C1265      C1739   1.476       .  S
C1266      C1829   1.483       .  S
C1267      C1847   1.485       .  S
C1268      C1862   1.483       .  S
O1269     Ni1275   1.928       .  S
O1269      C1290   1.271       .  A
O1270     Ni1293   1.914       .  S
O1270      C1279   1.269       .  A
O1271     Ni1275   1.898       .  S
O1271     Ni1293   1.899       .  S
O1271     Ni1287   1.907       .  S
O1271      H1294   0.967       .  S
C1272      O1289   1.278       .  A
C1272      O1281   1.278       .  A
C1272      C1703   1.469       .  S
O1273     Ni1292   1.930       .  S
O1273      C1279   1.272       .  A
O1274     Ni1292   1.908       .  S
O1274      C1276   1.268       .  A
Ni1275     O1278   1.916       .  S
Ni1275     O1280   1.905       .  S
C1276      O1286   1.271       .  A
C1276      C1667   1.468       .  S
O1277     Ni1293   1.926       .  S
O1277      C1283   1.281       .  A
O1278      C1283   1.277       .  A
C1279      C1811   1.470       .  S
O1280      C1282   1.267       .  A
O1281     Ni1292   1.919       .  S
C1282      O1288   1.269       .  A
C1282      C1793   1.466       .  S
C1283      C1775   1.468       .  S
H1284      O1285   0.966       .  S
O1285     Ni1293   1.911       .  S
O1285     Ni1287   1.900       .  S
O1285     Ni1292   1.899       .  S
O1286     Ni1287   1.925       .  S
Ni1287     O1291   1.913       .  S
Ni1287     O1289   1.922       .  S
O1288     Ni1293   1.922       .  S
C1290      O1291   1.269       .  A
C1290      C1682   1.470       .  S
C1295      H1296   1.110   1_545  S
C1295      C1925   1.520   1_545  S
C1295      C1300   1.528       .  S
C1295      C1923   1.529   1_545  S
C1297      H1298   1.111       .  S
C1297      C1303   1.547       .  S
C1297      C1926   1.542   1_545  S
C1297      C1928   1.539   1_545  S
C1299      C1919   1.528       .  S
C1299      C1302   1.376   1_655  D
C1300      C1303   1.377       .  D
C1301      C1919   1.522       .  S
C1301      C1304   1.371       .  D
C1301      C1664   1.471       .  S
C1302      C1921   1.550   1_455  S
C1304      C1921   1.549       .  S
C1304      C1649   1.485       .  S
C1305      H1306   1.111       .  S
C1305      C1311   1.545       .  S
C1305      C1310   1.544       .  S
C1305      C1309   1.548       .  S
C1307      H1308   1.111       .  S
C1307      C1313   1.526       .  S
C1307      C1312   1.534       .  S
C1307      C1314   1.535       .  S
C1309      C1312   1.376       .  D
C1309      C1628   1.486       .  S
C1310      C1313   1.370       .  D
C1310      C1646   1.489       .  S
C1311      C1314   1.378       .  D
C1311      C1613   1.483       .  S
C1312      C1577   1.484       .  S
C1313      C1556   1.470       .  S
C1314      C1595   1.486       .  S
C1315      H1316   1.111       .  S
C1315      C1321   1.551       .  S
C1315      C1320   1.553       .  S
C1315      C1319   1.542       .  S
C1317      H1318   1.111       .  S
C1317      C1323   1.530       .  S
C1317      C1322   1.530       .  S
C1317      C1324   1.523       .  S
C1319      C1322   1.374       .  D
C1319      C1505   1.497       .  S
C1320      C1323   1.378       .  D
C1320      C1520   1.483       .  S
C1321      C1324   1.370       .  D
C1321      C1538   1.477       .  S
C1322      C1484   1.461       .  S
C1323      C1466   1.487       .  S
C1324      C1448   1.484       .  S
C1325      H1326   1.111       .  S
C1325      C1331   1.543       .  S
C1325      C1954   1.542       .  S
C1325      C1953   1.544       .  S
C1327      H1328   1.112       .  S
C1327      C1957   1.527       .  S
C1327      C1956   1.529       .  S
C1327      C1334   1.518       .  S
C1329      C1949   1.544       .  S
C1329      C1332   1.371       .  D
C1329      C1523   1.487       .  S
C1330      C1949   1.552       .  S
C1330      C1333   1.381       .  D
C1331      C1334   1.367       .  D
C1332      C1951   1.526       .  S
C1332      C1397   1.473       .  S
C1333      C1951   1.535       .  S
O1335     Ni1341   1.937       .  S
O1335      C1356   1.273       .  A
O1336     Ni1359   1.898       .  S
O1336      C1345   1.264       .  A
O1337     Ni1341   1.905       .  S
O1337     Ni1359   1.903       .  S
O1337     Ni1353   1.909       .  S
O1337      H1360   0.966       .  S
C1338      O1355   1.277       .  A
C1338      O1347   1.278       .  A
C1338      C1721   1.475       .  S
O1339     Ni1358   1.936       .  S
O1339      C1345   1.272       .  A
O1340     Ni1358   1.905       .  S
O1340      C1342   1.268       .  A
Ni1341     O1344   1.929       .  S
Ni1341     O1346   1.909       .  S
C1342      O1352   1.269       .  A
C1342      C1736   1.467       .  S
O1343     Ni1359   1.926       .  S
O1343      C1349   1.277       .  A
O1344      C1349   1.279       .  A
C1345      C1415   1.461       .  S
O1346      C1348   1.268       .  A
O1347     Ni1358   1.925       .  S
C1348      O1354   1.267       .  A
C1348      C1394   1.468       .  S
C1349      C1430   1.478       .  S
H1350      O1351   0.966       .  S
O1351     Ni1359   1.909       .  S
O1351     Ni1353   1.901       .  S
O1351     Ni1358   1.906       .  S
O1352     Ni1353   1.925       .  S
Ni1353     O1357   1.900       .  S
Ni1353     O1355   1.924       .  S
O1354     Ni1359   1.916       .  S
C1356      O1357   1.265       .  A
C1356      C1757   1.466       .  S
O1361     Ni1367   1.918       .  S
O1361      C1382   1.268   1_554  A
O1362      C1371   1.271       .  A
O1363     Ni1367   1.909       .  S
O1363     Ni2009   1.911   1_545  S
O1363      H1386   0.968       .  S
C1364      O1381   1.266       .  A
C1364      O1373   1.270       .  A
C1364      C1559   1.467       .  S
O1365     Ni1384   1.930       .  S
O1365      C1371   1.274       .  A
O1366     Ni1384   1.913       .  S
Ni1367     O1370   1.920       .  S
Ni1367     O1372   1.903       .  S
C1368      O1378   1.273       .  A
C1368      C1592   1.473       .  S
O1369     Ni2009   1.910   1_545  S
O1369      C1375   1.268       .  A
O1370      C1375   1.271       .  A
C1371      C1451   1.478       .  S
O1373     Ni1384   1.937   1_556  S
C1374      O1380   1.267   1_455  A
C1374      C1487   1.460   1_455  S
C1375      C1469   1.464       .  S
H1376      O1377   0.967       .  S
O1377     Ni2003   1.906       .  S
O1377     Ni1384   1.913       .  S
Ni1379     O2005   1.905   1_544  S
Ni1379     O2001   1.910   1_545  S
O1381     Ni2003   1.911   1_556  S
C1382      O1383   1.267       .  A
C1382      C1574   1.471       .  S
Ni1385     O1993   1.929       .  S
Ni1385     O1987   1.907       .  S
C1387      C1392   1.384       .  A
C1387      C1388   1.405       .  A
C1387      N1393   1.343       .  A
C1388      C1389   1.403       .  A
C1388      H1399   1.082       .  S
C1389      C1398   1.381       .  A
C1389      C1390   1.385       .  A
C1390      C1391   1.400       .  A
C1390      N1396   1.339       .  A
C1391      C1392   1.398       .  A
C1391      H1400   1.082   1_545  S
C1392      C1395   1.375       .  A
N1393      C1394   1.357       .  A
N1393      H1403   1.045       .  S
C1394      C1395   1.393       .  A
C1395      H1401   1.082       .  S
N1396      C1397   1.353       .  A
N1396      H2028   1.045   1_545  S
C1397      C1398   1.395       .  A
C1398      H1402   1.082       .  S
H1404      N2020   1.044       .  S
C1405      C1410   1.385       .  A
C1405      C1406   1.400       .  A
C1406      C1407   1.398       .  A
C1407      C1416   1.376       .  A
C1407      C1408   1.385       .  A
C1408      C1409   1.404       .  A
C1408      N1414   1.342       .  A
C1409      C1410   1.402       .  A
C1409      H1418   1.082       .  S
C1410      C1413   1.380       .  A
N1411      H1421   1.044       .  S
C1412      C1413   1.394       .  A
C1413      H1419   1.082       .  S
N1414      C1415   1.354       .  A
N1414      H1422   1.045       .  S
C1415      C1416   1.391       .  A
C1416      H1420   1.082       .  S
C1423      C1428   1.384       .  A
C1423      C1424   1.409       .  A
C1423      N1429   1.348       .  A
C1424      C1425   1.408       .  A
C1424      H1435   1.082       .  S
C1425      C1434   1.385       .  A
C1425      C1426   1.382       .  A
C1426      C1427   1.402       .  A
C1426      N1432   1.340       .  A
C1427      C1428   1.400       .  A
C1427      H1436   1.083       .  S
C1428      C1431   1.376       .  A
N1429      C1430   1.359       .  A
N1429      H1439   1.045       .  S
C1430      C1431   1.395       .  A
C1431      H1437   1.082       .  S
N1432      C1433   1.357       .  A
C1433      C1434   1.401       .  A
C1434      H1438   1.082       .  S
C1441      C1446   1.384       .  A
C1441      C1442   1.404       .  A
C1441      N1447   1.343       .  A
C1442      C1443   1.403       .  A
C1442      H1453   1.083       .  S
C1443      C1452   1.378       .  A
C1443      C1444   1.385       .  A
C1444      C1445   1.409       .  A
C1444      N1450   1.349       .  A
C1445      C1446   1.408       .  A
C1445      H1454   1.082       .  S
C1446      C1449   1.385       .  A
N1447      C1448   1.354       .  A
N1447      H1457   1.043       .  S
C1448      C1449   1.397       .  A
C1449      H1455   1.082       .  S
N1450      C1451   1.357       .  A
C1451      C1452   1.396       .  A
C1452      H1456   1.083       .  S
C1459      C1464   1.382       .  A
C1459      C1460   1.412       .  A
C1459      N1465   1.350       .  A
C1460      C1461   1.412       .  A
C1460      H1471   1.082       .  S
C1461      C1470   1.389       .  A
C1461      C1462   1.385       .  A
C1462      C1463   1.393       .  A
C1462      N1468   1.334       .  A
C1463      C1464   1.391       .  A
C1463      H1472   1.083       .  S
C1464      C1467   1.364       .  A
N1465      C1466   1.362       .  A
N1465      H1475   1.044       .  S
C1466      C1467   1.390       .  A
C1467      H1473   1.080       .  S
N1468      C1469   1.350       .  A
N1468      H1476   1.045       .  S
C1469      C1470   1.399       .  A
C1470      H1474   1.082   1_545  S
C1477      C1482   1.386       .  A
C1477      C1478   1.397       .  A
C1477      N1483   1.336       .  A
C1478      C1479   1.396       .  A
C1478      H1489   1.083       .  S
C1479      C1488   1.371       .  A
C1479      C1480   1.385       .  A
C1480      C1481   1.402       .  A
C1480      N1486   1.341       .  A
C1481      C1482   1.400       .  A
C1481      H1490   1.082       .  S
C1482      C1485   1.376       .  A
N1483      C1484   1.351       .  A
N1483      H1493   1.045       .  S
C1484      C1485   1.392       .  A
C1485      H1491   1.082       .  S
N1486      C1487   1.355       .  A
N1486      H1494   1.045       .  S
C1487      C1488   1.392       .  A
C1495      C1500   1.383       .  A
C1495      C1496   1.408       .  A
C1496      C1497   1.408       .  A
C1497      C1506   1.382       .  A
C1497      C1498   1.383       .  A
C1498      C1499   1.407       .  A
C1498      N1504   1.348       .  A
C1499      C1500   1.407       .  A
C1499      H1508   1.082       .  S
C1500      C1503   1.380       .  A
N1501      H1511   1.044       .  S
C1502      C1503   1.399       .  A
C1503      H1509   1.082       .  S
N1504      C1505   1.357       .  A
N1504      H1512   1.044       .  S
C1505      C1506   1.402       .  A
C1506      H1510   1.082       .  S
C1513      C1518   1.384       .  A
C1513      C1514   1.406       .  A
C1513      N1519   1.346       .  A
C1514      C1515   1.406       .  A
C1514      H1525   1.082       .  S
C1515      C1524   1.379       .  A
C1515      C1516   1.384       .  A
C1516      C1517   1.402       .  A
C1516      N1522   1.344       .  A
C1517      C1518   1.402       .  A
C1517      H1526   1.082       .  S
C1518      C1521   1.375       .  A
N1519      C1520   1.356       .  A
N1519      H1529   1.044       .  S
C1520      C1521   1.396       .  A
C1521      H1527   1.082       .  S
N1522      C1523   1.355       .  A
N1522      H1530   1.044       .  S
C1523      C1524   1.400       .  A
C1524      H2152   1.082       .  S
H1528      C2148   1.082       .  S
C1531      C1536   1.384       .  A
C1531      C1532   1.404       .  A
C1531      N1537   1.346       .  A
C1532      C1533   1.405       .  A
C1533      C1534   1.384       .  A
C1534      C1535   1.403       .  A
C1534      N1540   1.346       .  A
C1535      C1536   1.403       .  A
C1535      H1544   1.082       .  S
C1536      C1539   1.376       .  A
N1537      C1538   1.355       .  A
N1537      H1547   1.045       .  S
C1538      C1539   1.395       .  A
C1539      H1545   1.082       .  S
N1540      C1541   1.354       .  A
N1540      H1548   1.045       .  S
C1542      H1546   1.082       .  S
C1549      C1554   1.385       .  A
C1549      C1550   1.405       .  A
C1549      N1555   1.344       .  A
C1550      C1551   1.404       .  A
C1550      H1561   1.082       .  S
C1551      C1560   1.381       .  A
C1551      C1552   1.385       .  A
C1552      C1553   1.401       .  A
C1552      N1558   1.340       .  A
C1553      C1554   1.399       .  A
C1553      H1562   1.082       .  S
C1554      C1557   1.375       .  A
N1555      C1556   1.354       .  A
N1555      H1565   1.045       .  S
C1556      C1557   1.391       .  A
C1557      H1563   1.082       .  S
N1558      C1559   1.354       .  A
N1558      H1566   1.045       .  S
C1559      C1560   1.395       .  A
C1560      H1564   1.082       .  S
C1567      C1572   1.384       .  A
C1567      C1568   1.400       .  A
C1567      N1573   1.338       .  A
C1568      C1569   1.398       .  A
C1568      H1579   1.083       .  S
C1569      C1578   1.374       .  A
C1569      C1570   1.383       .  A
C1570      C1571   1.408       .  A
C1570      N1576   1.346       .  A
C1571      C1572   1.407       .  A
C1571      H1580   1.082       .  S
C1572      C1575   1.387       .  A
N1573      C1574   1.354       .  A
N1573      H1583   1.045       .  S
C1574      C1575   1.398       .  A
C1575      H1581   1.082       .  S
N1576      C1577   1.358       .  A
N1576      H1584   1.044       .  S
C1577      C1578   1.394       .  A
C1578      H1582   1.083       .  S
C1585      C1590   1.384       .  A
C1585      C1586   1.409       .  A
C1585      N1591   1.347       .  A
C1586      C1587   1.409       .  A
C1586      H1597   1.082       .  S
C1587      C1596   1.385       .  A
C1587      C1588   1.383       .  A
C1588      C1589   1.399       .  A
C1588      N1594   1.339       .  A
C1589      C1590   1.397       .  A
C1589      H1598   1.082       .  S
C1590      C1593   1.373       .  A
N1591      C1592   1.359       .  A
N1591      H1601   1.045       .  S
C1592      C1593   1.392       .  A
C1593      H1599   1.082       .  S
N1594      C1595   1.354       .  A
N1594      H1602   1.045       .  S
C1595      C1596   1.401       .  A
C1596      H1600   1.082       .  S
C1603      C1608   1.384       .  A
C1603      C1604   1.406       .  A
C1603      N1609   1.345       .  A
C1604      C1605   1.405       .  A
C1604      H1615   1.082       .  S
C1605      C1614   1.381       .  A
C1605      C1606   1.384       .  A
C1606      C1607   1.404       .  A
C1606      N1612   1.344       .  A
C1607      C1608   1.403       .  A
C1607      H1616   1.082       .  S
C1608      C1611   1.378       .  A
N1609      C1610   1.356       .  A
C1610      C1611   1.397       .  A
C1611      H2241   1.082       .  S
N1612      C1613   1.355       .  A
N1612      H1620   1.045       .  S
C1613      C1614   1.397       .  A
C1614      H1618   1.082       .  S
H1617      C2235   1.082       .  S
C1621      C1626   1.384       .  A
C1621      C1622   1.405       .  A
C1621      N1627   1.345       .  A
C1622      C1623   1.404       .  A
C1622      H1633   1.082       .  S
C1623      C1632   1.380       .  A
C1623      C1624   1.384       .  A
C1624      C1625   1.407       .  A
C1624      N1630   1.346       .  A
C1625      C1626   1.406       .  A
C1625      H1634   1.082       .  S
C1626      C1629   1.381       .  A
N1627      C1628   1.355       .  A
N1627      H1637   1.045       .  S
C1628      C1629   1.399       .  A
C1629      H1635   1.082       .  S
N1630      C1631   1.356       .  A
N1630      H1638   1.045       .  S
C1631      C1632   1.397       .  A
C1639      C1644   1.384       .  A
C1639      C1640   1.404       .  A
C1639      N1645   1.347       .  A
C1640      C1641   1.405       .  A
C1640      H1651   1.082       .  S
C1641      C1650   1.376       .  A
C1641      C1642   1.384       .  A
C1642      C1643   1.404       .  A
C1642      N1648   1.347       .  A
C1643      C1644   1.405       .  A
C1643      H1652   1.082       .  S
C1644      C1647   1.376       .  A
N1645      C1646   1.356       .  A
N1645      H1655   1.045       .  S
C1646      C1647   1.399       .  A
C1647      H1653   1.082       .  S
N1648      C1649   1.356       .  A
N1648      H2280   1.045       .  S
C1649      C1650   1.398       .  A
C1650      H1654   1.081       .  S
H1656      N2272   1.045   1_545  S
C1657      C1662   1.385       .  A
C1657      C1658   1.402       .  A
C1657      N1663   1.342       .  A
C1658      C1659   1.401       .  A
C1658      H1669   1.082       .  S
C1659      C1668   1.377       .  A
C1659      C1660   1.385       .  A
C1660      C1661   1.404       .  A
C1660      N1666   1.343       .  A
C1661      C1662   1.403       .  A
C1661      H2294   1.083       .  S
C1662      C1665   1.378       .  A
N1663      C1664   1.353       .  A
N1663      H1673   1.045       .  S
C1664      C1665   1.393       .  A
C1665      H2295   1.082       .  S
N1666      C1667   1.356       .  A
N1666      H1674   1.045       .  S
C1667      C1668   1.393       .  A
C1668      H1672   1.082       .  S
H1670      C2285   1.082   1_545  S
H1671      C2289   1.083   1_545  S
C1675      C1680   1.385       .  A
C1675      C1676   1.405       .  A
C1675      N1681   1.345       .  A
C1676      C1677   1.404       .  A
C1676      H1687   1.082       .  S
C1677      C1686   1.380       .  A
C1677      C1678   1.383       .  A
C1678      C1679   1.402       .  A
C1679      C1680   1.401       .  A
C1679      H1688   1.083       .  S
C1680      C1683   1.375       .  A
N1681      C1682   1.356       .  A
N1681      H1691   1.045       .  S
C1682      C1683   1.395       .  A
C1683      H1689   1.083       .  S
N1684      H1692   1.044       .  S
C1685      C1686   1.398       .  A
C1686      H1690   1.082       .  S
C1693      C1698   1.385       .  A
C1693      C1694   1.406       .  A
C1693      N1699   1.346       .  A
C1694      C1695   1.406       .  A
C1695      C1704   1.381       .  A
C1695      C1696   1.385       .  A
C1696      C1697   1.398       .  A
C1696      N1702   1.339       .  A
C1697      C1698   1.397       .  A
C1697      H2330   1.083       .  S
C1698      C1701   1.371       .  A
N1699      C1700   1.356       .  A
C1700      C1701   1.391       .  A
C1701      H2331   1.083       .  S
N1702      C1703   1.354       .  A
N1702      H1710   1.045       .  S
C1703      C1704   1.397       .  A
C1704      H1708   1.082       .  S
H1706      C2321   1.082       .  S
H1707      C2325   1.083   1_545  S
C1711      C1716   1.385       .  A
C1711      C1712   1.399       .  A
C1711      N1717   1.339       .  A
C1712      C1713   1.398       .  A
C1712      H1723   1.082       .  S
C1713      C1722   1.372       .  A
C1713      C1714   1.384       .  A
C1714      C1715   1.409       .  A
C1714      N1720   1.348       .  A
C1715      C1716   1.408       .  A
C1715      H1724   1.082       .  S
C1716      C1719   1.385       .  A
N1717      C1718   1.352       .  A
N1717      H1727   1.045       .  S
C1718      C1719   1.397       .  A
C1719      H1725   1.082       .  S
N1720      C1721   1.359       .  A
N1720      H1728   1.045       .  S
C1721      C1722   1.393       .  A
C1722      H1726   1.083       .  S
C1729      N1735   1.346       .  A
C1730      C1731   1.402       .  A
C1730      H1741   1.082       .  S
C1731      C1740   1.379       .  A
C1731      C1732   1.384       .  A
C1732      C1733   1.405       .  A
C1732      N1738   1.343       .  A
C1733      C1734   1.403       .  A
C1733      H1742   1.082       .  S
N1735      C1736   1.357       .  A
N1735      H1745   1.045       .  S
C1736      C1737   1.392       .  A
C1737      H1743   1.082       .  S
N1738      C1739   1.355       .  A
N1738      H1746   1.045       .  S
C1739      C1740   1.394       .  A
C1740      H1744   1.082       .  S
C1747      C1752   1.383       .  A
C1747      C1748   1.407       .  A
C1747      N1753   1.345       .  A
C1748      C2373   1.407       .  A
C1748      H1759   1.082       .  S
C1749      C2372   1.406       .  A
C1749      C1758   1.378       .  A
C1749      C1750   1.386       .  A
C1750      C2375   1.398   1_545  A
C1750      N1756   1.342       .  A
C1751      C2374   1.397       .  A
C1751      C1752   1.395       .  A
C1751      H1760   1.083       .  S
C1752      C1755   1.369       .  A
N1753      C1754   1.358       .  A
N1753      H1763   1.044       .  S
C1754      C1755   1.392       .  A
C1755      H1761   1.082       .  S
N1756      C1757   1.353       .  A
N1756      H1764   1.045       .  S
C1757      C1758   1.395       .  A
C1758      H1762   1.082       .  S
C1765      C1770   1.385       .  A
C1765      C1766   1.403       .  A
C1765      N1771   1.343       .  A
C1766      C1767   1.402       .  A
C1766      H1777   1.082       .  S
C1767      C1776   1.379       .  A
C1767      C1768   1.385       .  A
C1768      C1769   1.401       .  A
C1768      N1774   1.340       .  A
C1769      C1770   1.399       .  A
C1769      H1778   1.083       .  S
C1770      C1773   1.373       .  A
N1771      C1772   1.355       .  A
N1771      H1781   1.044       .  S
C1772      C1773   1.393       .  A
C1773      H1779   1.083       .  S
N1774      C1775   1.355       .  A
N1774      H1782   1.045       .  S
C1775      C1776   1.394       .  A
C1776      H1780   1.082       .  S
C1783      C1788   1.384       .  A
C1783      C1784   1.401       .  A
C1783      N1789   1.341       .  A
C1785      C1794   1.373       .  A
C1785      C1786   1.385       .  A
C1786      N1792   1.344       .  A
C1787      C1788   1.404       .  A
C1787      H1796   1.082   1_655  S
C1788      C1791   1.378       .  A
N1789      C1790   1.353       .  A
N1789      H1799   1.044       .  S
C1790      C1791   1.394       .  A
C1791      H1797   1.082       .  S
N1792      C1793   1.356       .  A
N1792      H1800   1.045       .  S
C1793      C1794   1.393       .  A
C1794      H1798   1.083       .  S
C1801      C1806   1.383       .  A
C1801      C1802   1.399       .  A
C1801      N1807   1.338       .  A
C1802      C2427   1.398       .  A
C1802      H1813   1.083       .  S
C1803      C2426   1.400       .  A
C1803      C1812   1.375       .  A
C1803      C2428   1.385       .  A
C1804      C2427   1.384   1_565  A
C1804      C1805   1.410       .  A
C1804      N2434   1.348       .  A
C1805      C1806   1.409   1_565  A
C1805      H1814   1.082       .  S
C1806      C1809   1.386       .  A
N1807      C1808   1.354       .  A
N1807      H1817   1.043       .  S
C1808      C1809   1.401       .  A
C1809      H1815   1.082       .  S
N1810      C2428   1.345       .  A
N1810      C1811   1.356       .  A
N1810      H1818   1.045       .  S
C1811      C1812   1.394       .  A
C1812      H1816   1.083       .  S
C1819      C1824   1.384       .  A
C1819      C1820   1.405       .  A
C1819      N1825   1.345       .  A
C1820      C1821   1.404       .  A
C1820      H1831   1.082       .  S
C1821      C1830   1.379       .  A
C1821      C1822   1.384       .  A
C1822      C1823   1.405       .  A
C1822      N1828   1.345       .  A
C1823      C1824   1.405       .  A
C1823      H1832   1.082       .  S
C1824      C1827   1.380       .  A
N1825      C1826   1.357       .  A
N1825      H1835   1.044       .  S
C1826      C1827   1.396       .  A
C1827      H1833   1.082       .  S
N1828      C1829   1.357       .  A
N1828      H1836   1.044       .  S
C1829      C1830   1.394       .  A
C1830      H1834   1.082       .  S
C1837      C1842   1.385       .  A
C1837      C2462   1.403   1_545  A
C1837      N1843   1.341       .  A
C1838      C2461   1.406       .  A
C1838      C1839   1.405       .  A
C1838      H1849   1.082       .  S
C1839      C1848   1.381       .  A
C1839      C1840   1.384       .  A
C1840      C2465   1.406       .  A
C1840      N1846   1.345       .  A
C1841      C2464   1.404   1_545  A
C1841      C1842   1.403       .  A
C1841      H1850   1.082       .  S
C1842      C1845   1.380       .  A
N1843      C1844   1.355       .  A
N1843      H1853   1.045       .  S
C1844      C1845   1.394       .  A
C1845      H1851   1.082       .  S
N1846      C1847   1.358       .  A
N1846      H1854   1.045       .  S
C1847      C1848   1.395       .  A
C1848      H1852   1.082       .  S
C1855      C1860   1.384       .  A
C1855      N1861   1.341       .  A
C1856      C1857   1.401       .  A
C1856      H1867   1.082       .  S
C1857      C1866   1.378       .  A
C1857      C1858   1.383       .  A
C1858      N1864   1.341       .  A
C1859      C1860   1.404       .  A
C1859      H1868   1.082       .  S
C1860      C1863   1.381       .  A
N1861      C1862   1.355       .  A
N1861      H1871   1.042       .  S
C1862      C1863   1.396       .  A
C1863      H1869   1.082       .  S
N1864      C1865   1.356       .  A
N1864      H1872   1.041       .  S
C1865      C1866   1.394       .  A
C1866      H1870   1.082       .  S
C1873      H1874   1.111       .  S
C1873      C1879   1.547       .  S
C1873      C1878   1.544       .  S
C1873      C1877   1.541       .  S
C1875      H1876   1.111       .  S
C1875      C1881   1.529       .  S
C1875      C1880   1.524       .  S
C1875      C1882   1.530       .  S
C1877      C1880   1.368       .  D
C1877      C2489   1.478       .  S
C1878      C1881   1.375       .  D
C1878      C2450   1.479       .  S
C1879      C1882   1.377       .  D
C1879      C2468   1.486       .  S
C1880      C2414   1.468       .  S
C1881      C2396   1.479       .  S
C1882      C2432   1.480       .  S
C1883      H1884   1.111       .  S
C1883      C1889   1.521       .  S
C1883      C1888   1.530       .  S
C1883      C1887   1.527       .  S
C1885      H1886   1.111       .  S
C1885      C1891   1.545       .  S
C1885      C1890   1.546       .  S
C1885      C1892   1.544       .  S
C1887      C1890   1.373       .  D
C1887      C2342   1.477       .  S
C1888      C1891   1.374       .  D
C1888      C2378   1.483       .  S
C1889      C1892   1.368       .  D
C1889      C2363   1.461       .  S
C1890      C2453   1.480       .  S
C1891      C2471   1.475       .  S
C1892      C2486   1.484       .  S
O1893     Ni1899   1.930       .  S
O1893      C1914   1.271       .  A
O1894     Ni1917   1.913       .  S
O1894      C1903   1.267       .  A
O1895     Ni1899   1.902       .  S
O1895     Ni1917   1.902       .  S
O1895     Ni1911   1.907       .  S
O1895      H1918   0.967       .  S
C1896      O1913   1.277       .  A
C1896      O1905   1.279       .  A
C1896      C2327   1.475       .  S
O1897     Ni1916   1.939       .  S
O1897      C1903   1.275       .  A
O1898     Ni1916   1.911       .  S
O1898      C1900   1.268       .  A
Ni1899     O1902   1.918       .  S
Ni1899     O1904   1.910       .  S
C1900      O1910   1.268       .  A
C1900      C2291   1.467       .  S
O1901     Ni1917   1.927       .  S
O1901      C1907   1.279       .  A
O1902      C1907   1.277       .  A
C1903      C2435   1.475       .  S
O1904      C1906   1.268       .  A
O1905     Ni1916   1.926       .  S
C1906      O1912   1.269       .  A
C1906      C2417   1.469       .  S
C1907      C2399   1.472       .  S
H1908      O1909   0.966       .  S
O1909     Ni1917   1.910       .  S
O1909     Ni1911   1.906       .  S
O1909     Ni1916   1.903       .  S
O1910     Ni1911   1.918       .  S
Ni1911     O1915   1.911       .  S
Ni1911     O1913   1.924       .  S
O1912     Ni1917   1.919       .  S
C1914      O1915   1.266       .  A
C1914      C2306   1.468       .  S
C1919      H1920   1.111       .  S
C1919      C1924   1.527       .  S
C1921      H1922   1.111       .  S
C1921      C1927   1.549       .  S
C1923      C1926   1.374       .  D
C1924      C1927   1.376       .  D
C1925      C1928   1.368       .  D
C1925      C2288   1.468       .  S
C1928      C2273   1.475       .  S
C1929      H1930   1.111       .  S
C1929      C1935   1.543       .  S
C1929      C1934   1.543       .  S
C1929      C1933   1.547       .  S
C1931      H1932   1.110       .  S
C1931      C1937   1.522       .  S
C1931      C1936   1.529       .  S
C1931      C1938   1.529       .  S
C1933      C1936   1.374       .  D
C1933      C2252   1.484       .  S
C1934      C1937   1.368       .  D
C1934      C2270   1.478       .  S
C1935      C1938   1.377       .  D
C1935      C2237   1.481       .  S
C1936      C2201   1.477       .  S
C1937      C2180   1.469       .  S
C1938      C2219   1.479       .  S
C1939      H1940   1.111       .  S
C1939      C1945   1.554       .  S
C1939      C1944   1.545       .  S
C1939      C1943   1.547       .  S
C1941      H1942   1.110       .  S
C1941      C1947   1.532       .  S
C1941      C1946   1.528       .  S
C1941      C1948   1.527       .  S
C1943      C1946   1.371       .  D
C1943      C2129   1.490       .  S
C1944      C1947   1.376       .  D
C1944      C2144   1.487       .  S
C1945      C1948   1.376       .  D
C1945      C2162   1.482       .  S
C1946      C2108   1.473       .  S
C1947      C2090   1.481       .  S
C1948      C2072   1.485       .  S
C1949      H1950   1.111       .  S
C1949      C1955   1.543   1_545  S
C1951      H1952   1.107       .  S
C1951      C1958   1.529   1_545  S
C1953      C1956   1.377       .  D
C1953      C2147   1.487       .  S
C1954      C1957   1.374       .  D
C1955      C1958   1.368       .  D
C1956      C2021   1.473       .  S
O1959     Ni1965   1.926       .  S
O1959      C1980   1.269       .  A
O1960     Ni1983   1.910       .  S
O1960      C1969   1.266       .  A
O1961     Ni1965   1.903       .  S
O1961     Ni1983   1.906       .  S
O1961     Ni1977   1.907       .  S
O1961      H1984   0.966       .  S
C1962      O1979   1.274       .  A
C1962      O1971   1.275       .  A
C1962      C2345   1.473       .  S
O1963     Ni1982   1.924       .  S
O1963      C1969   1.269       .  A
O1964     Ni1982   1.911       .  S
O1964      C1966   1.269       .  A
Ni1965     O1968   1.924       .  S
Ni1965     O1970   1.899       .  S
C1966      O1976   1.267       .  A
C1966      C2360   1.463       .  S
O1967     Ni1983   1.917       .  S
O1967      C1973   1.276       .  A
O1968      C1973   1.277       .  A
C1969      C2039   1.463       .  S
O1970      C1972   1.266       .  A
O1971     Ni1982   1.916       .  S
C1972      O1978   1.269       .  A
C1972      C2018   1.467       .  S
C1973      C2054   1.472       .  S
H1974      O1975   0.966       .  S
O1975     Ni1983   1.922       .  S
O1975     Ni1977   1.912       .  S
O1975     Ni1982   1.913       .  S
O1976     Ni1977   1.909       .  S
Ni1977     O1981   1.913       .  S
Ni1977     O1979   1.923       .  S
O1978     Ni1983   1.923       .  S
C1980      O1981   1.266       .  A
C1980      C2381   1.466       .  S
O1985     Ni1991   1.917       .  S
O1985      C2006   1.267   1_554  A
O1986      C1995   1.264       .  A
O1987     Ni1991   1.914       .  S
O1987      H2010   0.967       .  S
C1988      O2005   1.271       .  A
C1988      O1997   1.275       .  A
C1988      C2183   1.467       .  S
O1989     Ni2008   1.931       .  S
O1989      C1995   1.271       .  A
O1990     Ni2008   1.894   1_556  S
Ni1991     O1994   1.914       .  S
Ni1991     O1996   1.909       .  S
C1992      O2002   1.278       .  A
C1992      C2216   1.472       .  S
O1993      C1999   1.278       .  A
O1994      C1999   1.274       .  A
C1995      C2075   1.462       .  S
O1997     Ni2008   1.931   1_556  S
C1998      O2004   1.268       .  A
C1998      C2111   1.468   1_455  S
C1999      C2093   1.475       .  S
H2000      O2001   0.965       .  S
O2001     Ni2008   1.909       .  S
C2006      O2007   1.263       .  A
C2006      C2198   1.461       .  S
C2011      C2016   1.385       .  A
C2011      C2012   1.404       .  A
C2011      N2017   1.343       .  A
C2012      C2013   1.402       .  A
C2012      H2023   1.082       .  S
C2013      C2022   1.380       .  A
C2013      C2014   1.384       .  A
C2014      C2015   1.400       .  A
C2014      N2020   1.338       .  A
C2015      C2016   1.398       .  A
C2015      H2024   1.083       .  S
C2016      C2019   1.374       .  A
N2017      C2018   1.356       .  A
N2017      H2027   1.045       .  S
C2018      C2019   1.394       .  A
C2019      H2025   1.083       .  S
N2020      C2021   1.354       .  A
C2021      C2022   1.395       .  A
C2022      H2026   1.082       .  S
C2029      C2034   1.384       .  A
C2029      C2030   1.409       .  A
C2030      C2031   1.409       .  A
C2031      C2040   1.385       .  A
C2031      C2032   1.386       .  A
C2032      C2033   1.397       .  A
C2032      N2038   1.338       .  A
C2033      C2034   1.395       .  A
C2033      H2042   1.083       .  S
C2034      C2037   1.369       .  A
N2035      H2045   1.044       .  S
C2036      C2037   1.387       .  A
C2037      H2043   1.081       .  S
N2038      C2039   1.351       .  A
N2038      H2046   1.045       .  S
C2039      C2040   1.397       .  A
C2040      H2044   1.082       .  S
C2047      C2052   1.384       .  A
C2047      C2048   1.406       .  A
C2047      N2053   1.347       .  A
C2048      C2049   1.406       .  A
C2048      H2059   1.082       .  S
C2049      C2058   1.381       .  A
C2049      C2050   1.385       .  A
C2050      C2051   1.400       .  A
C2050      N2056   1.341       .  A
C2051      C2052   1.399       .  A
C2051      H2060   1.082       .  S
C2052      C2055   1.372       .  A
N2053      C2054   1.357       .  A
N2053      H2063   1.045       .  S
C2054      C2055   1.394       .  A
C2055      H2061   1.083       .  S
N2056      C2057   1.353       .  A
C2057      C2058   1.397       .  A
C2058      H2062   1.082   1_655  S
C2065      C2070   1.382       .  A
C2065      C2066   1.406       .  A
C2065      N2071   1.347       .  A
C2066      C2067   1.407       .  A
C2066      H2077   1.082       .  S
C2067      C2076   1.381       .  A
C2067      C2068   1.386       .  A
C2068      C2069   1.395       .  A
C2068      N2074   1.338       .  A
C2069      C2070   1.395       .  A
C2069      H2078   1.083       .  S
C2070      C2073   1.365       .  A
N2071      C2072   1.359       .  A
N2071      H2081   1.044       .  S
C2072      C2073   1.393       .  A
C2073      H2079   1.079       .  S
N2074      C2075   1.351       .  A
C2075      C2076   1.396       .  A
C2076      H2080   1.082       .  S
C2083      C2088   1.384       .  A
C2083      C2084   1.407       .  A
C2083      N2089   1.348       .  A
C2084      C2085   1.407       .  A
C2084      H2095   1.082       .  S
C2085      C2094   1.383       .  A
C2085      C2086   1.384       .  A
C2086      C2087   1.401       .  A
C2086      N2092   1.341       .  A
C2087      C2088   1.400       .  A
C2087      H2096   1.083       .  S
C2088      C2091   1.373       .  A
N2089      C2090   1.357       .  A
N2089      H2099   1.044       .  S
C2090      C2091   1.394       .  A
C2091      H2097   1.083       .  S
N2092      C2093   1.356       .  A
N2092      H2100   1.045       .  S
C2093      C2094   1.397       .  A
C2094      H2098   1.082       .  S
C2101      C2106   1.385       .  A
C2101      C2102   1.401       .  A
C2101      N2107   1.338       .  A
C2102      C2103   1.399       .  A
C2102      H2113   1.083       .  S
C2103      C2112   1.377   1_655  A
C2103      C2104   1.384       .  A
C2104      C2105   1.405       .  A
C2104      N2110   1.342       .  A
C2105      C2106   1.403       .  A
C2105      H2114   1.082       .  S
C2106      C2109   1.382       .  A
N2107      C2108   1.352       .  A
N2107      H2117   1.042       .  S
C2108      C2109   1.394       .  A
C2109      H2115   1.082       .  S
N2110      C2111   1.356       .  A
N2110      H2118   1.045       .  S
C2111      C2112   1.394   1_655  A
C2119      C2124   1.383       .  A
C2119      C2120   1.404       .  A
C2120      C2121   1.404       .  A
C2121      C2130   1.377       .  A
C2121      C2122   1.383       .  A
C2122      C2123   1.406       .  A
C2122      N2128   1.347       .  A
C2123      C2124   1.406       .  A
C2123      H2132   1.082       .  S
C2124      C2127   1.379       .  A
N2125      H2135   1.044       .  S
C2126      C2127   1.400       .  A
C2127      H2133   1.082       .  S
N2128      C2129   1.357       .  A
N2128      H2136   1.044       .  S
C2129      C2130   1.399       .  A
C2130      H2134   1.082       .  S
C2137      C2142   1.383       .  A
C2137      C2138   1.405       .  A
C2137      N2143   1.345       .  A
C2138      C2139   1.405       .  A
C2138      H2149   1.082       .  S
C2139      C2148   1.380       .  A
C2139      C2140   1.383       .  A
C2140      C2141   1.405       .  A
C2140      N2146   1.345       .  A
C2141      C2142   1.405       .  A
C2141      H2150   1.082       .  S
C2142      C2145   1.380       .  A
N2143      C2144   1.356       .  A
N2143      H2153   1.044       .  S
C2144      C2145   1.398       .  A
C2145      H2151   1.082       .  S
N2146      C2147   1.356       .  A
N2146      H2154   1.044       .  S
C2147      C2148   1.398       .  A
C2155      C2160   1.384       .  A
C2155      C2156   1.406       .  A
C2155      N2161   1.344       .  A
C2156      C2157   1.405       .  A
C2157      C2158   1.384       .  A
C2158      C2159   1.405       .  A
C2158      N2164   1.343       .  A
C2159      C2160   1.403       .  A
C2159      H2168   1.082       .  S
C2160      C2163   1.381       .  A
N2161      C2162   1.357       .  A
N2161      H2171   1.045       .  S
C2162      C2163   1.394       .  A
C2163      H2169   1.082       .  S
N2164      C2165   1.357       .  A
N2164      H2172   1.044       .  S
C2166      H2170   1.083       .  S
C2173      C2178   1.385       .  A
C2173      C2174   1.404       .  A
C2173      N2179   1.344       .  A
C2174      C2175   1.403       .  A
C2174      H2185   1.082       .  S
C2175      C2184   1.379       .  A
C2175      C2176   1.385       .  A
C2176      C2177   1.400       .  A
C2176      N2182   1.341       .  A
C2177      C2178   1.399       .  A
C2177      H2186   1.082       .  S
C2178      C2181   1.374       .  A
N2179      C2180   1.354       .  A
N2179      H2189   1.045       .  S
C2180      C2181   1.390       .  A
C2181      H2187   1.082       .  S
N2182      C2183   1.354       .  A
N2182      H2190   1.045       .  S
C2183      C2184   1.395       .  A
C2184      H2188   1.082   1_565  S
C2191      C2196   1.385       .  A
C2191      C2192   1.395       .  A
C2191      N2197   1.337       .  A
C2192      C2193   1.394       .  A
C2192      H2203   1.083       .  S
C2193      C2202   1.366       .  A
C2193      C2194   1.384       .  A
C2194      C2195   1.406       .  A
C2194      N2200   1.345       .  A
C2195      C2196   1.405       .  A
C2195      H2204   1.082       .  S
C2196      C2199   1.381       .  A
N2197      C2198   1.351       .  A
N2197      H2207   1.045       .  S
C2198      C2199   1.396       .  A
C2199      H2205   1.082       .  S
N2200      C2201   1.358       .  A
N2200      H2208   1.044       .  S
C2201      C2202   1.391       .  A
C2202      H2206   1.082       .  S
C2209      C2214   1.384       .  A
C2209      C2210   1.405       .  A
C2209      N2215   1.341       .  A
C2210      C2211   1.402       .  A
C2210      H2221   1.082       .  S
C2211      C2220   1.382       .  A
C2211      C2212   1.383       .  A
C2212      C2213   1.404       .  A
C2212      N2218   1.339       .  A
C2213      C2214   1.401       .  A
C2213      H2222   1.082       .  S
C2214      C2217   1.381       .  A
N2215      C2216   1.356       .  A
N2215      H2225   1.045       .  S
C2216      C2217   1.396       .  A
C2217      H2223   1.082       .  S
N2218      C2219   1.356       .  A
N2218      H2226   1.045       .  S
C2219      C2220   1.396       .  A
C2220      H2224   1.082       .  S
C2227      C2232   1.384       .  A
C2227      C2228   1.405       .  A
C2227      N2233   1.344       .  A
C2228      C2229   1.404       .  A
C2228      H2239   1.082       .  S
C2229      C2238   1.379       .  A
C2229      C2230   1.384       .  A
C2230      C2231   1.403       .  A
C2230      N2236   1.343       .  A
C2231      C2232   1.402       .  A
C2231      H2240   1.082       .  S
C2232      C2235   1.377       .  A
N2233      C2234   1.355       .  A
C2234      C2235   1.396       .  A
N2236      C2237   1.355       .  A
N2236      H2244   1.045       .  S
C2237      C2238   1.396       .  A
C2238      H2242   1.082       .  S
C2245      C2250   1.384       .  A
C2245      C2246   1.405       .  A
C2245      N2251   1.346       .  A
C2246      C2247   1.404       .  A
C2246      H2257   1.082       .  S
C2247      C2256   1.379       .  A
C2247      C2248   1.384       .  A
C2248      C2249   1.406       .  A
C2248      N2254   1.347       .  A
C2249      C2250   1.406       .  A
C2249      H2258   1.082       .  S
C2250      C2253   1.380       .  A
N2251      C2252   1.355       .  A
N2251      H2261   1.045       .  S
C2252      C2253   1.398       .  A
C2253      H2259   1.082       .  S
N2254      C2255   1.356       .  A
N2254      H2262   1.045       .  S
C2255      C2256   1.397       .  A
C2263      C2268   1.385       .  A
C2263      C2264   1.400       .  A
C2263      N2269   1.343       .  A
C2264      C2265   1.400       .  A
C2264      H2275   1.082       .  S
C2265      C2274   1.371       .  A
C2265      C2266   1.385       .  A
C2266      C2267   1.403       .  A
C2266      N2272   1.345       .  A
C2267      C2268   1.404       .  A
C2267      H2276   1.082       .  S
C2268      C2271   1.375       .  A
N2269      C2270   1.353       .  A
N2269      H2279   1.045       .  S
C2270      C2271   1.397       .  A
C2271      H2277   1.081       .  S
N2272      C2273   1.355       .  A
C2273      C2274   1.393       .  A
C2274      H2278   1.081       .  S
C2281      C2286   1.385       .  A
C2281      C2282   1.403       .  A
C2281      N2287   1.343       .  A
C2282      C2283   1.402       .  A
C2282      H2293   1.082       .  S
C2283      C2292   1.378       .  A
C2283      C2284   1.385       .  A
C2284      C2285   1.402       .  A
C2284      N2290   1.342       .  A
C2285      C2286   1.401       .  A
C2286      C2289   1.375       .  A
N2287      C2288   1.353       .  A
N2287      H2297   1.045       .  S
C2288      C2289   1.391       .  A
N2290      C2291   1.354       .  A
N2290      H2298   1.045       .  S
C2291      C2292   1.395       .  A
C2292      H2296   1.082       .  S
C2299      C2304   1.385       .  A
C2299      C2300   1.408       .  A
C2299      N2305   1.346       .  A
C2300      C2301   1.406       .  A
C2300      H2311   1.082       .  S
C2301      C2310   1.383       .  A
C2301      C2302   1.384       .  A
C2302      C2303   1.399       .  A
C2303      C2304   1.397       .  A
C2303      H2312   1.083       .  S
C2304      C2307   1.373       .  A
N2305      C2306   1.357       .  A
N2305      H2315   1.045       .  S
C2306      C2307   1.391       .  A
C2307      H2313   1.082       .  S
N2308      H2316   1.044       .  S
C2309      C2310   1.398       .  A
C2310      H2314   1.082       .  S
C2317      C2322   1.384       .  A
C2317      C2318   1.410       .  A
C2317      N2323   1.349       .  A
C2318      C2319   1.410       .  A
C2319      C2328   1.386       .  A
C2319      C2320   1.385       .  A
C2320      C2321   1.397       .  A
C2320      N2326   1.338       .  A
C2321      C2322   1.395       .  A
C2322      C2325   1.369       .  A
N2323      C2324   1.359       .  A
C2324      C2325   1.389       .  A
N2326      C2327   1.353       .  A
N2326      H2334   1.045       .  S
C2327      C2328   1.401       .  A
C2328      H2332   1.082       .  S
C2335      C2340   1.385       .  A
C2335      C2336   1.397       .  A
C2335      N2341   1.338       .  A
C2336      C2337   1.396       .  A
C2336      H2347   1.083       .  S
C2337      C2346   1.370       .  A
C2337      C2338   1.384       .  A
C2338      C2339   1.409       .  A
C2338      N2344   1.348       .  A
C2339      C2340   1.408       .  A
C2339      H2348   1.082       .  S
C2340      C2343   1.385       .  A
N2341      C2342   1.351       .  A
N2341      H2351   1.045       .  S
C2342      C2343   1.399       .  A
C2343      H2349   1.082       .  S
N2344      C2345   1.359       .  A
N2344      H2352   1.045       .  S
C2345      C2346   1.393       .  A
C2346      H2350   1.083       .  S
C2353      N2359   1.339       .  A
C2354      C2355   1.400       .  A
C2354      H2365   1.082       .  S
C2355      C2364   1.374       .  A
C2355      C2356   1.386       .  A
C2356      C2357   1.399       .  A
C2356      N2362   1.340       .  A
C2357      C2358   1.399       .  A
C2357      H2366   1.083       .  S
N2359      C2360   1.354       .  A
N2359      H2369   1.045       .  S
C2360      C2361   1.394       .  A
C2361      H2367   1.082       .  S
N2362      C2363   1.352       .  A
N2362      H2370   1.045       .  S
C2363      C2364   1.390       .  A
C2364      H2368   1.082       .  S
C2371      C2376   1.384       .  A
C2371      C2372   1.405   1_565  A
C2371      N2377   1.347       .  A
C2372      H2383   1.082       .  S
C2373      C2382   1.384       .  A
C2373      C2374   1.385       .  A
C2374      N2380   1.337       .  A
C2375      C2376   1.398       .  A
C2375      H2384   1.083       .  S
C2376      C2379   1.368       .  A
N2377      C2378   1.358       .  A
N2377      H2387   1.044       .  S
C2378      C2379   1.393       .  A
C2379      H2385   1.081       .  S
N2380      C2381   1.352       .  A
N2380      H2388   1.045       .  S
C2381      C2382   1.398       .  A
C2382      H2386   1.082       .  S
C2389      C2394   1.384       .  A
C2389      C2390   1.408       .  A
C2389      N2395   1.348       .  A
C2390      C2391   1.407       .  A
C2390      H2401   1.082       .  S
C2391      C2400   1.384       .  A
C2391      C2392   1.385       .  A
C2392      C2393   1.398       .  A
C2392      N2398   1.339       .  A
C2393      C2394   1.397       .  A
C2393      H2402   1.083       .  S
C2394      C2397   1.370       .  A
N2395      C2396   1.358       .  A
N2395      H2405   1.044       .  S
C2396      C2397   1.391       .  A
C2397      H2403   1.083       .  S
N2398      C2399   1.354       .  A
N2398      H2406   1.045       .  S
C2399      C2400   1.398       .  A
C2400      H2404   1.082       .  S
C2407      C2412   1.385       .  A
C2407      C2408   1.401       .  A
C2407      N2413   1.341       .  A
C2409      C2418   1.377       .  A
C2409      C2410   1.385       .  A
C2410      N2416   1.342       .  A
C2411      C2412   1.403       .  A
C2411      H2420   1.082   1_655  S
C2412      C2415   1.378       .  A
N2413      C2414   1.352       .  A
N2413      H2423   1.045       .  S
C2414      C2415   1.393       .  A
C2415      H2421   1.082       .  S
N2416      C2417   1.355       .  A
N2416      H2424   1.045       .  S
C2417      C2418   1.395       .  A
C2418      H2422   1.082       .  S
C2425      C2430   1.384       .  A
C2425      C2426   1.401       .  A
C2425      N2431   1.339       .  A
C2426      H2437   1.083       .  S
C2427      C2436   1.374   1_545  A
C2428      C2429   1.406       .  A
C2429      C2430   1.404       .  A
C2429      H2438   1.082       .  S
C2430      C2433   1.381       .  A
N2431      C2432   1.355       .  A
N2431      H2441   1.045       .  S
C2432      C2433   1.397       .  A
C2433      H2439   1.082       .  S
N2434      C2435   1.359       .  A
N2434      H2442   1.045       .  S
C2435      C2436   1.392       .  A
C2436      H2440   1.082       .  S
C2443      C2448   1.384       .  A
C2443      C2444   1.403       .  A
C2443      N2449   1.342       .  A
C2444      C2445   1.402       .  A
C2444      H2455   1.082       .  S
C2445      C2454   1.378       .  A
C2445      C2446   1.384       .  A
C2446      C2447   1.403       .  A
C2446      N2452   1.342       .  A
C2447      C2448   1.402       .  A
C2447      H2456   1.083       .  S
C2448      C2451   1.377       .  A
N2449      C2450   1.356       .  A
N2449      H2459   1.044       .  S
C2450      C2451   1.395       .  A
C2451      H2457   1.083       .  S
N2452      C2453   1.357       .  A
N2452      H2460   1.044       .  S
C2453      C2454   1.394       .  A
C2454      H2458   1.082       .  S
C2461      C2466   1.384       .  A
C2461      N2467   1.345       .  A
C2462      C2463   1.402       .  A
C2462      H2473   1.082       .  S
C2463      C2472   1.379       .  A
C2463      C2464   1.385       .  A
C2464      N2470   1.343       .  A
C2465      C2466   1.406       .  A
C2465      H2474   1.082       .  S
C2466      C2469   1.382       .  A
N2467      C2468   1.357       .  A
N2467      H2477   1.044       .  S
C2468      C2469   1.396       .  A
C2469      H2475   1.082       .  S
N2470      C2471   1.355       .  A
N2470      H2478   1.045       .  S
C2471      C2472   1.393       .  A
C2472      H2476   1.083       .  S
C2479      C2484   1.384       .  A
C2479      N2485   1.343       .  A
C2480      C2481   1.401       .  A
C2480      H2491   1.082       .  S
C2481      C2490   1.379       .  A
C2481      C2482   1.384       .  A
C2482      N2488   1.341       .  A
C2483      C2484   1.404       .  A
C2483      H2492   1.082       .  S
C2484      C2487   1.382       .  A
N2485      C2486   1.357       .  A
N2485      H2495   1.043       .  S
C2486      C2487   1.395       .  A
C2487      H2493   1.082       .  S
N2488      C2489   1.356       .  A
N2488      H2496   1.043       .  S
C2489      C2490   1.394       .  A
C2490      H2494   1.082       .  S
