geometry optimzed in LAMMPS
_audit_creation_date              2020-11-30 
_audit_creation_method            'lammps2cif' 
_symmetry_space_group_name_H-M    'P1' 
_symmetry_Int_Tables_number       1 
_symmetry_cell_setting            triclinic 
loop_ 
_symmetry_equiv_pos_as_xyz 
  x,y,z 
_cell_length_a                    58.01541741 
_cell_length_b                    57.969849913698546 
_cell_length_c                    34.81140798314843 
_cell_angle_alpha                 90.26026187660214 
_cell_angle_beta                  89.77238817810071 
_cell_angle_gamma                 120.60777094474419 
loop_ 
_atom_site_label 
_atom_site_type_symbol 
_atom_site_fract_x 
_atom_site_fract_y 
_atom_site_fract_z 
_atom_site_charge 
O1          O  0.86145699  0.34421013  0.06686638    -0.78000
C2          C  0.90978807  0.38188485  0.17101447     0.83000
O3          O  0.84173893  0.27237926  0.15617271    -0.79100
O4          O  0.84507082  0.34409541  0.24732848    -0.80600
O5          O  0.80547311  0.36093566  0.13513057    -0.80400
O6          O  0.81708908  0.32647887  0.06655676    -0.79000
Zn7        Zn  0.86819419  0.33644933  0.12101407     1.55700
O8          O  0.83264247  0.38191531  0.18456689    -0.80400
Cd9        Cd  0.80955051  0.32789157  0.12448423     1.59700
Cd10       Cd  0.82615855  0.29434844  0.18258410     1.59600
O11         O  0.77372352  0.29508453  0.14103563    -0.80400
O12         O  0.83891062  0.32925731  0.15497284    -1.90900
Cd13       Cd  0.85084020  0.35910459  0.19246554     1.59900
O14         O  0.78437090  0.27199321  0.18136847    -0.80400
O15         O  0.89175802  0.38321789  0.19018237    -0.79000
C16         C  0.85878184  0.27957843  0.12881703     0.83500
C17         C  0.83942966  0.33588570  0.04896845     0.83200
O18         O  0.90371295  0.36529863  0.14330721    -0.78000
C19         C  0.81512297  0.37956109  0.16031609     0.84000
O20         O  0.86990105  0.30302427  0.11463062    -0.78100
C21         C  0.76714134  0.27555217  0.16384309     0.84100
C22         C  0.84311119  0.32280301  0.26105836     0.84400
O23         O  0.83758945  0.30241028  0.24022179    -0.80500
O24         O  0.87303608  0.35160358  0.56754109    -0.78000
C25         C  0.91266283  0.39404145  0.67702826     0.83000
O26         O  0.84370191  0.28254526  0.66018646    -0.79100
O27         O  0.84181484  0.35335771  0.74464070    -0.80600
O28         O  0.81176665  0.37175698  0.62359539    -0.80400
O29         O  0.83027661  0.33977188  0.55974872    -0.79000
Zn30       Zn  0.87577427  0.34678228  0.62501183     1.55700
O31         O  0.83351655  0.39014797  0.67815427    -0.80400
Cd32       Cd  0.81773554  0.33979702  0.61498807     1.59700
Cd33       Cd  0.82684287  0.30477212  0.67978951     1.59600
O34         O  0.78073292  0.30630747  0.62251253    -0.80400
O35         O  0.84359696  0.33993465  0.65210084    -1.90900
Cd36       Cd  0.85221989  0.36878773  0.69002554     1.59900
O37         O  0.78563797  0.28336366  0.66983958    -0.80400
O38         O  0.89283915  0.39407259  0.69280478    -0.79000
C39         C  0.86443735  0.28983398  0.63934318     0.83500
C40         C  0.85304877  0.34587916  0.54594597     0.83200
O41         O  0.90920149  0.37743601  0.65025892    -0.78000
C42         C  0.81813112  0.38857568  0.65100283     0.84000
O43         O  0.87844408  0.31368020  0.62678507    -0.78100
C44         C  0.77105838  0.28663524  0.64564570     0.84100
C45         C  0.83681695  0.33122525  0.75946534     0.84400
O46         O  0.83255049  0.31114895  0.73886769    -0.80500
O47         O  0.48455791  0.13507114  0.06397539    -0.78000
C48         C  0.47235827  0.08996000  0.17105038     0.83000
O49         O  0.43772271  0.16355074  0.15082895    -0.79100
O50         O  0.50388707  0.15825093  0.24230901    -0.80600
O51         O  0.55954141  0.19183183  0.12886029    -0.80400
O52         O  0.51439217  0.17874067  0.06035540    -0.79000
Zn53       Zn  0.47031837  0.13114107  0.11853941     1.55700
O54         O  0.55213540  0.16631582  0.18003651    -0.80400
Cd55       Cd  0.52319094  0.18864658  0.11717180     1.59700
Cd56       Cd  0.47544565  0.17803852  0.17639806     1.59600
O57         O  0.52902279  0.22605282  0.12797017    -0.80400
O58         O  0.49442752  0.16147042  0.14998961    -1.90900
Cd59       Cd  0.51125865  0.14952980  0.18826227     1.59900
O60         O  0.49835357  0.21990227  0.17195715    -0.80400
O61         O  0.49261690  0.10847626  0.18860807    -0.79000
C62         C  0.42616502  0.14537804  0.12513299     0.83500
C63         C  0.50015312  0.15595280  0.04443445     0.83200
O64         O  0.46156811  0.09555312  0.14348509    -0.78000
C65         C  0.56800229  0.18258559  0.15478611     0.84000
O66         O  0.43645980  0.13203463  0.11221692    -0.78100
C67         C  0.51893756  0.23526622  0.15168742     0.84100
C68         C  0.48677145  0.16358503  0.25613192     0.84400
O69         O  0.47246936  0.16940986  0.23502936    -0.80500
O70         O  0.48029022  0.13144073  0.56265001    -0.78000
C71         C  0.47921834  0.08975485  0.67082099     0.83000
O72         O  0.43402404  0.15260947  0.65929609    -0.79100
O73         O  0.51081492  0.15931338  0.73943234    -0.80600
O74         O  0.55888432  0.19573870  0.62284616    -0.80400
O75         O  0.50873424  0.17548043  0.55803616    -0.79000
Zn76       Zn  0.47038326  0.12689555  0.61922915     1.55700
O77         O  0.55534699  0.16968718  0.67176510    -0.80400
Cd78       Cd  0.51980253  0.18680938  0.61396214     1.59700
Cd79       Cd  0.47331633  0.17124669  0.67946585     1.59600
O80         O  0.51892695  0.22117660  0.62327546    -0.80400
O81         O  0.49409334  0.15850968  0.64878066    -1.90900
Cd82       Cd  0.51512970  0.15008629  0.68429139     1.59900
O83         O  0.48976084  0.21217040  0.67113007    -0.80400
O84         O  0.49941580  0.10955716  0.68653667    -0.79000
C85         C  0.42251540  0.13420285  0.63401800     0.83500
C86         C  0.49330191  0.15273688  0.54270605     0.83200
O87         O  0.46655130  0.09331156  0.64381280    -0.78000
C88         C  0.56948654  0.18741060  0.64700576     0.84000
O89         O  0.43419260  0.12296256  0.61856402    -0.78100
C90         C  0.50679074  0.22826611  0.64674223     0.84100
C91         C  0.49205532  0.16059711  0.75639442     0.84400
O92         O  0.47479812  0.16373892  0.73803111    -0.80500
O93         O  0.66208972  0.52372922  0.06108862    -0.78000
C94         C  0.62440556  0.53203808  0.16728179     0.83000
O95         O  0.73296915  0.56957378  0.15529777    -0.79100
O96         O  0.65681863  0.49790793  0.23778425    -0.80600
O97         O  0.64137285  0.44539670  0.12350099    -0.80400
O98         O  0.67559698  0.49390082  0.05800056    -0.79000
Zn99       Zn  0.66958614  0.53580359  0.11680967     1.55700
O100        O  0.62019879  0.45169449  0.17234522    -0.80400
Cd101      Cd  0.67486147  0.48316364  0.11436376     1.59700
Cd102      Cd  0.70927080  0.53033552  0.17722559     1.59600
O103        O  0.70801130  0.47981880  0.12572700    -0.80400
O104        O  0.67470832  0.51095381  0.14756222    -1.90900
Cd105      Cd  0.64354601  0.49246066  0.18266751     1.59900
O106        O  0.73062955  0.51018576  0.17112137    -0.80400
O107        O  0.62101247  0.51080706  0.18329805    -0.79000
C108        C  0.72711608  0.58167597  0.12992865     0.83500
C109        C  0.66878209  0.50921793  0.04187288     0.83200
O110        O  0.64199929  0.54346759  0.14099000    -0.78000
C111        C  0.62227394  0.43643276  0.14787551     0.84000
O112        O  0.70410834  0.57083970  0.11442744    -0.78100
C113        C  0.72749121  0.49098606  0.14932206     0.84100
C114        C  0.67833538  0.51513129  0.25427849     0.84400
O115        O  0.70000848  0.53023668  0.23577354    -0.80500
O116        O  0.64774998  0.51713621  0.56082958    -0.78000
C117        C  0.60952274  0.51966513  0.67139496     0.83000
O118        O  0.71782411  0.56013317  0.65636464    -0.79100
O119        O  0.64508958  0.48625318  0.73707321    -0.80600
O120        O  0.62897769  0.43743468  0.61843919    -0.80400
O121        O  0.65943027  0.48611481  0.55392948    -0.79000
Zn122      Zn  0.65426372  0.52663427  0.61765876     1.55700
O123        O  0.60804356  0.44135887  0.66965382    -0.80400
Cd124      Cd  0.66104713  0.47544431  0.60954122     1.59700
Cd125      Cd  0.69515260  0.52051340  0.67463477     1.59600
O126        O  0.69472681  0.47282989  0.61773374    -0.80400
O127        O  0.66047819  0.50158405  0.64564311    -1.90900
Cd128      Cd  0.63067255  0.48161502  0.68226339     1.59900
O129        O  0.71689567  0.50143069  0.66538703    -0.80400
O130        O  0.60710325  0.49837924  0.68556248    -0.79000
C131        C  0.71115866  0.57287565  0.63349455     0.83500
C132        C  0.65275133  0.50209004  0.53976733     0.83200
O133        O  0.62599038  0.53220676  0.64417775    -0.78000
C134        C  0.61025948  0.42731281  0.64330051     0.84000
O135        O  0.68798312  0.56205428  0.61849885    -0.78100
C136        C  0.71413034  0.48347206  0.64142269     0.84100
C137        C  0.66706367  0.50302072  0.75300304     0.84400
O138        O  0.68766920  0.51916349  0.73337859    -0.80500
O139        O  0.34713199  0.86845920  0.41509091    -0.78000
C140        C  0.38540357  0.90971530  0.30341967     0.83000
O141        O  0.27604367  0.84305549  0.32397268    -0.79100
O142        O  0.34682064  0.83904279  0.23848637    -0.80600
O143        O  0.36404545  0.80845728  0.35819499    -0.80400
O144        O  0.32988600  0.82438111  0.42063692    -0.79000
Zn145      Zn  0.34086604  0.87215443  0.35849090     1.55700
O146        O  0.38450044  0.83191458  0.30563500    -0.80400
Cd147      Cd  0.33130993  0.81323795  0.36494132     1.59700
Cd148      Cd  0.29775611  0.82580041  0.30182035     1.59600
O149        O  0.29887373  0.77632326  0.35195575    -0.80400
O150        O  0.33274955  0.84045292  0.32973171    -1.90900
Cd151      Cd  0.36205573  0.84943313  0.29274471     1.59900
O152        O  0.27588096  0.78412570  0.30760380    -0.80400
O153        O  0.38603291  0.89015288  0.28797949    -0.79000
C154        C  0.28442459  0.86312207  0.34676123     0.83500
C155        C  0.33846101  0.84743665  0.43570738     0.83200
O156        O  0.36969916  0.90606207  0.33159824    -0.78000
C157        C  0.38242066  0.81634218  0.33285408     0.84000
O158        O  0.30810982  0.87478300  0.35989271    -0.78100
C159        C  0.27965052  0.76813493  0.32813085     0.84100
C160        C  0.32612517  0.83747706  0.22335980     0.84400
O161        O  0.30607736  0.83417818  0.24323746    -0.80500
O162        O  0.35536106  0.86918806  0.91819945    -0.78000
C163        C  0.39573552  0.91433519  0.81038565     0.83000
O164        O  0.28457152  0.84456801  0.83157280    -0.79100
O165        O  0.35325645  0.84547514  0.73816053    -0.80600
O166        O  0.37613491  0.81366607  0.85289986    -0.80400
O167        O  0.34182692  0.82565769  0.92054660    -0.79000
Zn168      Zn  0.34981211  0.87524798  0.86233179     1.55700
O169        O  0.39310771  0.83730505  0.79951634    -0.80400
Cd170      Cd  0.34261102  0.81669221  0.86363307     1.59700
Cd171      Cd  0.30622168  0.82886760  0.80546621     1.59600
O172        O  0.31007433  0.77968428  0.85138864    -0.80400
O173        O  0.34195326  0.84427371  0.83123961    -1.90900
Cd174      Cd  0.36990999  0.85453278  0.79162041     1.59900
O175        O  0.28516747  0.78719641  0.81033125    -0.80400
O176        O  0.39408013  0.89523745  0.79018941    -0.79000
C177        C  0.29281755  0.86504649  0.85342800     0.83500
C178        C  0.34888733  0.84789749  0.93715844     0.83200
O179        O  0.38061155  0.90987590  0.83960151    -0.78000
C180        C  0.39324252  0.82209625  0.82570427     0.84000
O181        O  0.31703361  0.87860564  0.86466321    -0.78100
C182        C  0.28993332  0.77124856  0.82921518     0.84100
C183        C  0.33133731  0.84202656  0.72473302     0.84400
O184        O  0.31176488  0.83761966  0.74662584    -0.80500
O185        O  0.13182640  0.47798135  0.40577533    -0.78000
C186        C  0.09249386  0.47634960  0.29387015     0.83000
O187        O  0.16123197  0.43529391  0.31988631    -0.79100
O188        O  0.16401863  0.50668804  0.22915855    -0.80600
O189        O  0.19099414  0.55740045  0.34957453    -0.80400
O190        O  0.17496431  0.50891461  0.41347106    -0.79000
Zn191      Zn  0.12892099  0.46821665  0.34891894     1.55700
O192        O  0.17009328  0.55361527  0.29471021    -0.80400
Cd193      Cd  0.18733875  0.52047168  0.35788014     1.59700
Cd194      Cd  0.17818393  0.47413054  0.29667194     1.59600
O195        O  0.22502049  0.52619940  0.34882980    -0.80400
O196        O  0.16141748  0.49330666  0.32177930    -1.90900
Cd197      Cd  0.15321065  0.51292847  0.28269992     1.59900
O198        O  0.21968064  0.49559751  0.30536472    -0.80400
O199        O  0.11256729  0.49589462  0.27772894    -0.79000
C200        C  0.13988975  0.42194896  0.33987819     0.83500
C201        C  0.15194016  0.49256314  0.42729091     0.83200
O202        O  0.09561551  0.46423855  0.32222661    -0.78000
C203        C  0.18399451  0.56768919  0.32320872     0.84000
O204        O  0.12568184  0.43197681  0.34993034    -0.78100
C205        C  0.23474077  0.51579381  0.32656825     0.84100
C206        C  0.16827867  0.48869885  0.21575331     0.84400
O207        O  0.17215651  0.47317037  0.23728593    -0.80500
O208        O  0.13661026  0.48210505  0.91027587    -0.78000
C209        C  0.09085920  0.48281956  0.80730572     0.83000
O210        O  0.15691306  0.43723650  0.81722186    -0.79100
O211        O  0.15618383  0.50794591  0.73032912    -0.80600
O212        O  0.19185805  0.56041136  0.85119975    -0.80400
O213        O  0.18075675  0.51053151  0.91198751    -0.79000
Zn214      Zn  0.12938602  0.47279654  0.85372146     1.55700
O215        O  0.17006030  0.55692855  0.79701610    -0.80400
Cd216      Cd  0.18859441  0.52328685  0.85580199     1.59700
Cd217      Cd  0.17350839  0.47561997  0.79370200     1.59600
O218        O  0.22496089  0.52841932  0.83882978    -0.80400
O219        O  0.15996537  0.49640277  0.82241284    -1.90900
Cd220      Cd  0.15020273  0.51607660  0.78579970     1.59900
O221        O  0.21498944  0.49506893  0.79741293    -0.80400
O222        O  0.10975826  0.50130843  0.78777685    -0.79000
C223        C  0.13667594  0.42488672  0.83945865     0.83500
C224        C  0.15862476  0.49483429  0.92870481     0.83200
O225        O  0.09536794  0.47054907  0.83394514    -0.78000
C226        C  0.18466667  0.57079695  0.82514070     0.84000
O227        O  0.12412652  0.43596546  0.85244634    -0.78100
C228        C  0.23195695  0.51596160  0.81573056     0.84100
C229        C  0.15948265  0.48972936  0.71532418     0.84400
O230        O  0.16441789  0.47435098  0.73544213    -0.80500
O231        O  0.52499028  0.65765978  0.39983866    -0.78000
C232        C  0.52992269  0.62187302  0.28655402     0.83000
O233        O  0.56625769  0.73041062  0.31261549    -0.79100
O234        O  0.49460691  0.65966985  0.22312665    -0.80600
O235        O  0.44434697  0.63272715  0.34261144    -0.80400
O236        O  0.49295781  0.66787464  0.40681524    -0.79000
Zn237      Zn  0.53461994  0.66489074  0.34296878     1.55700
O238        O  0.45016948  0.61604150  0.28809322    -0.80400
Cd239      Cd  0.48080296  0.66744947  0.35151094     1.59700
Cd240      Cd  0.52707079  0.70714750  0.29110828     1.59600
O241        O  0.47473346  0.69924973  0.34532215    -0.80400
O242        O  0.50883884  0.67063787  0.31553164    -1.90900
Cd243      Cd  0.49057536  0.64224019  0.27588158     1.59900
O244        O  0.50636468  0.72693912  0.30440234    -0.80400
O245        O  0.51027526  0.62119485  0.26933204    -0.79000
C246        C  0.57978157  0.72325703  0.33308410     0.83500
C247        C  0.51010154  0.66281976  0.42099109     0.83200
O248        O  0.54056845  0.63694210  0.31590335    -0.78000
C249        C  0.43539372  0.61510952  0.31602586     0.84000
O250        O  0.57013637  0.69918878  0.34422822    -0.78100
C251        C  0.48645094  0.72104753  0.32641089     0.84100
C252        C  0.51117684  0.68271425  0.20962296     0.84400
O253        O  0.52640715  0.70267004  0.23118470    -0.80500
O254        O  0.51246329  0.65049024  0.90543655    -0.78000
C255        C  0.52457667  0.61487187  0.79691972     0.83000
O256        O  0.56410378  0.72159936  0.81410016    -0.79100
O257        O  0.49293276  0.65078059  0.72375901    -0.80600
O258        O  0.44011802  0.63075175  0.84034313    -0.80400
O259        O  0.48767833  0.66984952  0.90466036    -0.79000
Zn260      Zn  0.52617666  0.65741489  0.85019935     1.55700
O261        O  0.44607111  0.61088477  0.78953718    -0.80400
Cd262      Cd  0.47665927  0.66538152  0.84780960     1.59700
Cd263      Cd  0.52607766  0.69971582  0.78879028     1.59600
O264        O  0.47210628  0.69680663  0.83162942    -0.80400
O265        O  0.50446040  0.66467813  0.81625881    -1.90900
Cd266      Cd  0.48664390  0.63532150  0.77834302     1.59900
O267        O  0.50676517  0.72171624  0.79288503    -0.80400
O268        O  0.50552482  0.61352682  0.77716850    -0.79000
C269        C  0.57373645  0.71448882  0.84149363     0.83500
C270        C  0.50052943  0.66093763  0.92283627     0.83200
O271        O  0.53369659  0.62969120  0.82676720    -0.78000
C272        C  0.43107672  0.61189966  0.81560292     0.84000
O273        O  0.56120951  0.69107555  0.85571860    -0.78100
C274        C  0.48533078  0.71708546  0.81002719     0.84100
C275        C  0.51144980  0.67263066  0.70938788     0.84400
O276        O  0.52768525  0.69256496  0.73018298    -0.80500
O277        O  0.11094415  0.96879166  0.01827782    -0.78000
C278        C  0.17244997  0.99174088  0.09759107     0.83000
O279        O  0.17600087  0.05478441  0.96850346    -0.79100
O280        O  0.23429470  0.02262549  0.02212507    -0.80600
O281        O  0.16792814  0.94071358  0.95439176    -0.80400
O282        O  0.11123338  0.94467557  0.96873812    -0.79000
Zn283      Zn  0.14836682  0.99938580  0.02535194     1.55700
O284        O  0.20017866  0.95812947  0.99811778    -0.80400
Cd285      Cd  0.15209244  0.96578731  0.95549686     1.59700
Cd286      Cd  0.19387363  0.03126128  0.96194905     1.59600
O287        O  0.15814342  0.98013096  0.90019191    -0.80400
O288        O  0.17266284  0.99667330  0.99094932    -1.90900
Cd289      Cd  0.19677425  0.98916990  0.02179539     1.59900
O290        O  0.19284642  0.02217253  0.90349953    -0.80400
O291        O  0.18574101  0.98331268  0.07914218    -0.79000
C292        C  0.15760515  0.05188833  0.99172958     0.83500
C293        C  0.09866425  0.94936373  0.99493135     0.83200
O294        O  0.15876198  0.99987327  0.07990856    -0.78000
C295        C  0.18764077  0.94125555  0.97129140     0.84000
O296        O  0.14677643  0.03226627  0.01493344    -0.78100
C297        C  0.17617851  0.00156457  0.88415310     0.84100
C298        C  0.24577760  0.04559158  0.00630256     0.84400
O299        O  0.23344655  0.05250862  0.98283949    -0.80500
O300        O  0.13892740  0.03111924  0.46756061    -0.78000
C301        C  0.17582937  0.00859744  0.38580713     0.83000
O302        O  0.11504393  0.94196606  0.51158285    -0.79100
O303        O  0.20336083  0.97352456  0.45109496    -0.80600
O304        O  0.22110880  0.05223738  0.53207110    -0.80400
O305        O  0.16208788  0.05057228  0.52062310    -0.79000
Zn306      Zn  0.14354155  0.99916878  0.45823498     1.55700
O307        O  0.23678133  0.03685359  0.48631419    -0.80400
Cd308      Cd  0.18007818  0.02793242  0.53013031     1.59700
Cd309      Cd  0.15660564  0.96411558  0.51652147     1.59600
O310        O  0.17057596  0.01087856  0.58377606    -0.80400
O311        O  0.17014087  0.99961052  0.49092221    -1.90900
Cd312      Cd  0.20198783  0.00802405  0.45945989     1.59900
O313        O  0.16603052  0.97045993  0.57489133    -0.80400
O314        O  0.19779120  0.01800261  0.40414192    -0.79000
C315        C  0.09929391  0.94599648  0.49099410     0.83500
C316        C  0.14675363  0.04919106  0.49343870     0.83200
O317        O  0.15339916  0.99885294  0.40310986    -0.78000
C318        C  0.24057341  0.05235897  0.51474352     0.84000
O319        O  0.10830994  0.96647635  0.46935055    -0.78100
C320        C  0.16876291  0.98949024  0.59670142     0.84100
C321        C  0.19017216  0.94959499  0.46364586     0.84400
O322        O  0.17219973  0.94252353  0.48960492    -0.80500
O323        O  0.03898935  0.14301329  0.01558762    -0.78000
C324        C  0.01564112  0.18258900  0.09875114     0.83000
O325        O  0.94866438  0.11977768  0.97708357    -0.79100
O326        O  0.98206354  0.21170511  0.02326062    -0.80600
O327        O  0.06147913  0.22691574  0.95288103    -0.80400
O328        O  0.05926124  0.16782414  0.96410618    -0.79000
Zn329      Zn  0.00787973  0.14897661  0.02679794     1.55700
O330        O  0.04590966  0.24313526  0.99709732    -0.80400
Cd331      Cd  0.03701952  0.18600605  0.95508251     1.59700
Cd332      Cd  0.97214744  0.16065187  0.96563701     1.59600
O333        O  0.02150924  0.17659757  0.90095402    -0.80400
O334        O  0.00763920  0.17529658  0.99287221    -1.90900
Cd335      Cd  0.01544083  0.20807130  0.02232174     1.59900
O336        O  0.97854094  0.16494638  0.90584745    -0.80400
O337        O  0.02125957  0.20360050  0.07974172    -0.79000
C338        C  0.95288267  0.10448431  0.99850323     0.83500
C339        C  0.05686422  0.15095693  0.98941746     0.83200
O340        O  0.00952952  0.16052184  0.08218292    -0.78000
C341        C  0.06165423  0.24669588  0.96904876     0.84000
O342        O  0.97416877  0.11329713  0.01838438    -0.78100
C343        C  0.99919798  0.17042116  0.88566395     0.84100
C344        C  0.95887161  0.19965289  0.00819872     0.84400
O345        O  0.95147333  0.17968067  0.98547190    -0.80500
O346        O  0.96413826  0.11167220  0.46135564    -0.78000
C347        C  0.99435405  0.17806135  0.38604046     0.83000
O348        O  0.05409531  0.17065570  0.50914769    -0.79100
O349        O  0.02818011  0.23792764  0.46583638    -0.80600
O350        O  0.94634653  0.17183832  0.53304661    -0.80400
O351        O  0.94615940  0.11415581  0.51661292    -0.79000
Zn352      Zn  0.99767548  0.14796120  0.45500187     1.55700
O353        O  0.96343907  0.20520435  0.49084787    -0.80400
Cd354      Cd  0.96974370  0.15465546  0.52871259     1.59700
Cd355      Cd  0.03491542  0.19266515  0.51745160     1.59600
O356        O  0.98543440  0.15977362  0.58260199    -0.80400
O357        O  0.99919043  0.17395966  0.49104748    -1.90900
Cd358      Cd  0.99352020  0.20105233  0.46447608     1.59900
O359        O  0.02817704  0.19284302  0.57670405    -0.80400
O360        O  0.98828690  0.19275613  0.40601571    -0.79000
C361        C  0.04803065  0.15061183  0.48724761     0.83500
C362        C  0.94650619  0.10081032  0.48766455     0.83200
O363        O  0.99930139  0.16108638  0.40126266    -0.78000
C364        C  0.94712508  0.19220866  0.51800222     0.84000
O365        O  0.02801234  0.14136381  0.46470696    -0.78100
C366        C  0.00776745  0.17708190  0.59710514     0.84100
C367        C  0.05223068  0.24631897  0.47600426     0.84400
O368        O  0.05886192  0.23164627  0.49478383    -0.80500
O369        O  0.85523889  0.89436573  0.01980671    -0.78000
C370        C  0.81980706  0.82908600  0.09968231     0.83000
O371        O  0.88237424  0.83331856  0.97100008    -0.79100
O372        O  0.79457425  0.76877979  0.02274909    -0.80600
O373        O  0.77109970  0.82744499  0.95465153    -0.80400
O374        O  0.82649608  0.88868345  0.97363251    -0.79000
Zn375      Zn  0.85193908  0.85807233  0.02791426     1.55700
O376        O  0.75803739  0.79542358  0.99877643    -0.80400
Cd377      Cd  0.81223769  0.84910600  0.95889192     1.59700
Cd378      Cd  0.84122031  0.81342818  0.96224032     1.59600
O379        O  0.82400773  0.84823887  0.90382642    -0.80400
O380        O  0.82561243  0.83144440  0.99353904    -1.90900
Cd381      Cd  0.79429463  0.80398396  0.02321706     1.59900
O382        O  0.83484565  0.81648491  0.90347091    -0.80400
O383        O  0.79844810  0.81379390  0.08095991    -0.79000
C384        C  0.89762601  0.85221604  0.99386806     0.83500
C385        C  0.84449216  0.90372699  0.99762792     0.83200
O386        O  0.84148555  0.84623170  0.08312036    -0.78000
C387        C  0.75292934  0.80618813  0.97069700     0.84000
O388        O  0.88840593  0.86262481  0.01717505    -0.78100
C389        C  0.82983541  0.83274385  0.88573300     0.84100
C390        C  0.80802997  0.75994330  0.00591484     0.84400
O391        O  0.82606538  0.77374907  0.98095917    -0.80500
O392        O  0.88985442  0.85538427  0.46851286    -0.78000
C393        C  0.82815234  0.81598586  0.38639728     0.83000
O394        O  0.82871164  0.88592068  0.50211241    -0.79100
O395        O  0.76389845  0.79326743  0.45847604    -0.80600
O396        O  0.82499571  0.77636220  0.53620662    -0.80400
O397        O  0.88362732  0.83363648  0.52359646    -0.79000
Zn398      Zn  0.85396443  0.85146328  0.45614615     1.55700
O399        O  0.79327850  0.75986587  0.49151460    -0.80400
Cd400      Cd  0.84301137  0.81713467  0.53133518     1.59700
Cd401      Cd  0.80707852  0.84503910  0.51470653     1.59600
O402        O  0.83702857  0.82913322  0.58351283    -0.80400
O403        O  0.82605897  0.82745014  0.49091123    -1.90900
Cd404      Cd  0.79980187  0.79429802  0.46304806     1.59900
O405        O  0.80708154  0.84198825  0.57505440    -0.80400
O406        O  0.81146410  0.79584023  0.40624780    -0.79000
C407        C  0.84913013  0.89955057  0.48062911     0.83500
C408        C  0.89880113  0.84831412  0.49665097     0.83200
O409        O  0.84434357  0.83849563  0.40183002    -0.78000
C410        C  0.80511938  0.75656165  0.51995143     0.84000
O411        O  0.85943908  0.88840310  0.46118794    -0.78100
C412        C  0.82150978  0.83670166  0.59687840     0.84100
C413        C  0.75487906  0.80821736  0.46924382     0.84400
O414        O  0.76831097  0.82854348  0.49118338    -0.80500
C415        C  0.82386760  0.81470734  0.77874085    -0.22000
C416        C  0.82657771  0.83801603  0.76237686     0.10000
C417        C  0.83103544  0.85957440  0.78616781     0.10400
C418        C  0.83301794  0.85747744  0.82595243    -0.16900
C419        C  0.83011212  0.83406898  0.84292092    -0.27300
C420        C  0.82538529  0.81231434  0.81873801     0.18700
C421        C  0.82525406  0.83962528  0.72008855     0.12700
C422        C  0.83314299  0.88457534  0.76961987    -0.11700
H423        H  0.83651486  0.87425374  0.84396806     0.13000
C424        C  0.82100963  0.78623111  0.83457075    -0.22500
H425        H  0.82037401  0.79825111  0.76003129     0.08600
C426        C  0.84867209  0.85082783  0.69755055     0.05000
C427        C  0.84652562  0.85105068  0.65753835    -0.19700
C428        C  0.82147655  0.83958914  0.63918432    -0.12000
C429        C  0.79790075  0.82832763  0.66197010     0.13700
C430        C  0.80021889  0.82895363  0.70223560    -0.22400
C431        C  0.87586259  0.86164235  0.71561713    -0.05500
H432        H  0.86460161  0.85941557  0.64026671     0.15200
C433        C  0.77001496  0.81401568  0.64545007    -0.15700
H434        H  0.78229200  0.82014933  0.71984020     0.09500
H435        H  0.83929634  0.78960977  0.84963357     0.07400
H436        H  0.81655848  0.77124641  0.81149774     0.08600
H437        H  0.80374010  0.77756307  0.85474584     0.07600
H438        H  0.81438355  0.87931900  0.75416364     0.02500
H439        H  0.85020036  0.89422368  0.74922549     0.03000
H440        H  0.83632594  0.89942943  0.79232636     0.06500
H441        H  0.89205482  0.86933626  0.69370335     0.05500
H442        H  0.87638798  0.84548371  0.73186873    -0.00300
H443        H  0.88014288  0.87833318  0.73554111     0.01200
H444        H  0.75886130  0.79319117  0.65662164     0.04800
H445        H  0.76948890  0.81261850  0.61378728     0.06800
H446        H  0.75937070  0.82454608  0.65443182     0.07700
C447        C  0.81558930  0.79911812  0.19795658    -0.22000
C448        C  0.82230015  0.82108734  0.22191971     0.10000
C449        C  0.82793182  0.84572081  0.20573006     0.10400
C450        C  0.82682142  0.84782118  0.16565323    -0.16900
C451        C  0.81991807  0.82574511  0.14162319    -0.27300
C452        C  0.81448893  0.80110944  0.15798779     0.18700
C453        C  0.82353472  0.81782237  0.26389587     0.12700
C454        C  0.83476626  0.86961121  0.23079000    -0.11700
H455        H  0.83120755  0.86669411  0.15301053     0.13000
C456        C  0.80860406  0.77679528  0.13438255    -0.22500
H457        H  0.81159482  0.78035298  0.21055845     0.08600
C458        C  0.80005909  0.80428911  0.28632628     0.05000
C459        C  0.80225385  0.80245733  0.32616530    -0.19700
C460        C  0.82738690  0.81396691  0.34407306    -0.12000
C461        C  0.85088260  0.82621881  0.32121431     0.13700
C462        C  0.84862275  0.82821236  0.28141713    -0.22400
C463        C  0.77275278  0.79265489  0.26840927    -0.05500
H464        H  0.78425169  0.79312541  0.34364297     0.15200
C465        C  0.87853373  0.83683135  0.33754954    -0.15700
H466        H  0.86657868  0.83794754  0.26386505     0.09500
H467        H  0.78826664  0.75996403  0.14150388     0.07400
H468        H  0.82344881  0.77073657  0.14130002     0.08600
H469        H  0.80967127  0.78019039  0.10302297     0.07600
H470        H  0.85334160  0.87551627  0.24718087     0.02500
H471        H  0.81810319  0.86450397  0.25122947     0.03000
H472        H  0.83807570  0.88713488  0.21358293     0.06500
H473        H  0.75653478  0.78332479  0.29021546     0.05500
H474        H  0.76959648  0.77697699  0.24716856    -0.00300
H475        H  0.77111092  0.80871996  0.25373347     0.01200
H476        H  0.88851000  0.82741299  0.32224359     0.04800
H477        H  0.87836697  0.83228489  0.36846632     0.06800
H478        H  0.89059183  0.85886380  0.33348589     0.07700
C479        C  0.90021883  0.02992726  0.45057526    -0.22000
C480        C  0.89761468  0.01502187  0.48356309     0.10000
C481        C  0.90893714  0.02842355  0.51845967     0.10400
C482        C  0.92345261  0.05653962  0.51928443    -0.16900
C483        C  0.92721056  0.07160015  0.48589523    -0.27300
C484        C  0.91461542  0.05808481  0.45134348     0.18700
C485        C  0.88449896  0.98546444  0.48059956     0.12700
C486        C  0.90618445  0.01300606  0.55460576    -0.11700
H487        H  0.93299744  0.06680559  0.54581332     0.13000
C488        C  0.91538350  0.07255441  0.41505319    -0.22500
H489        H  0.89115777  0.01949898  0.42393598     0.08600
C490        C  0.85651390  0.96852681  0.48355521     0.05000
C491        C  0.84542629  0.94057373  0.48294097    -0.19700
C492        C  0.86171784  0.92919434  0.47904516    -0.12000
C493        C  0.88988795  0.94643729  0.47559182     0.13700
C494        C  0.90078903  0.97429145  0.47632931    -0.22400
C495        C  0.83849254  0.98001161  0.48790890    -0.05500
H496        H  0.82392762  0.92754250  0.48559586     0.15200
C497        C  0.90887491  0.93590018  0.47284087    -0.15700
H498        H  0.92229769  0.98756842  0.47427322     0.09500
H499        H  0.89459125  0.06525138  0.40520422     0.07400
H500        H  0.92625603  0.06841730  0.39228775     0.08600
H501        H  0.92500607  0.09451745  0.41895451     0.07600
H502        H  0.91560746  0.00062357  0.55046992     0.02500
H503        H  0.88466309  0.99971566  0.56163253     0.03000
H504        H  0.91603060  0.02655408  0.57947314     0.06500
H505        H  0.81709877  0.96402875  0.49007667     0.05500
H506        H  0.84079938  0.99262631  0.46261617    -0.00300
H507        H  0.84390121  0.99249870  0.51431100     0.01200
H508        H  0.90553434  0.92461634  0.44560549     0.04800
H509        H  0.90586155  0.92269838  0.49770069     0.06800
H510        H  0.93014728  0.95234572  0.47301584     0.07700
C511        C  0.97900587  0.15372739  0.78020940    -0.22000
C512        C  0.00232817  0.17369759  0.76212423     0.10000
C513        C  0.02391377  0.19264717  0.78450323     0.10400
C514        C  0.02180701  0.19119709  0.82457354    -0.16900
C515        C  0.99861572  0.17119898  0.84308845    -0.27300
C516        C  0.97687396  0.15219355  0.82057237     0.18700
C517        C  0.00408964  0.17452917  0.71967622     0.12700
C518        C  0.04935604  0.21418768  0.76606893    -0.11700
H519        H  0.03848720  0.20577731  0.84158686     0.13000
C520        C  0.95196257  0.12976195  0.83875705    -0.22500
H521        H  0.96261745  0.13920549  0.76267834     0.08600
C522        C  0.01205740  0.15870955  0.69909944     0.05000
C523        C  0.01451652  0.16103136  0.65897974    -0.19700
C524        C  0.00915691  0.17877140  0.63917281    -0.12000
C525        C  0.00103335  0.19452411  0.65978424     0.13700
C526        C  0.99882851  0.19234933  0.69989913    -0.22400
C527        C  0.01780336  0.13933058  0.71948918    -0.05500
H528        H  0.01999292  0.14845810  0.64284369     0.15200
C529        C  0.99402071  0.21335773  0.64036047    -0.15700
H530        H  0.99279862  0.20453189  0.71590421     0.09500
H531        H  0.95732095  0.11776875  0.85756290     0.07400
H532        H  0.93757989  0.11608570  0.81682357     0.08600
H533        H  0.94173465  0.13807249  0.85600203     0.07600
H534        H  0.04493604  0.22707398  0.74773054     0.02500
H535        H  0.05830459  0.20486005  0.74808912     0.03000
H536        H  0.06440982  0.22717970  0.78781334     0.06500
H537        H  0.02382713  0.12853884  0.69907632     0.05500
H538        H  0.99960808  0.12421594  0.73502648    -0.00300
H539        H  0.03431614  0.15030738  0.74035690     0.01200
H540        H  0.97285519  0.20710402  0.64679939     0.04800
H541        H  0.99641885  0.21385735  0.60872573     0.06800
H542        H  0.00718797  0.23401457  0.65144753     0.07700
C543        C  0.02010407  0.17121042  0.20557109    -0.22000
C544        C  0.00674844  0.18353246  0.22134611     0.10000
C545        C  0.99748276  0.19643806  0.19696778     0.10400
C546        C  0.00159532  0.19652717  0.15723299    -0.16900
C547        C  0.01422259  0.18350273  0.14115977    -0.27300
C548        C  0.02368855  0.17072742  0.16568845     0.18700
C549        C  0.00233595  0.18229299  0.26344104     0.12700
C550        C  0.98252007  0.20936866  0.21272028    -0.11700
H551        H  0.99407013  0.20606053  0.13844906     0.13000
C552        C  0.03800673  0.15706279  0.15018900    -0.22500
H553        H  0.02739683  0.16159350  0.22460597     0.08600
C554        C  0.98353263  0.15820882  0.28165068     0.05000
C555        C  0.98083612  0.15772910  0.32173119    -0.19700
C556        C  0.99627907  0.18080406  0.34395547    -0.12000
C557        C  0.01489640  0.20509443  0.32565067     0.13700
C558        C  0.01755827  0.20548096  0.28553839    -0.22400
C559        C  0.96618946  0.13307096  0.25882457    -0.05500
H560        H  0.96676620  0.13916370  0.33591857     0.15200
C561        C  0.03322836  0.23060535  0.34729222    -0.15700
H562        H  0.03210623  0.22388162  0.27142589     0.09500
H563        H  0.04538978  0.14957624  0.17364902     0.07400
H564        H  0.05551265  0.17140468  0.13271473     0.08600
H565        H  0.02421134  0.13957416  0.13224392     0.07600
H566        H  0.99558128  0.22596823  0.23251621     0.02500
H567        H  0.96445477  0.19426272  0.22853238     0.03000
H568        H  0.97592311  0.21779717  0.18952433     0.06500
H569        H  0.95202709  0.11628016  0.27754667     0.05500
H570        H  0.97883813  0.12667239  0.24356230    -0.00300
H571        H  0.95431392  0.13687563  0.23754917     0.01200
H572        H  0.05439854  0.23714742  0.34041270     0.04800
H573        H  0.03098358  0.22849907  0.37886175     0.06800
H574        H  0.02921335  0.24659948  0.33836567     0.07700
C575        C  0.88905001  0.03608999  0.00762704    -0.22000
C576        C  0.89911708  0.01915655  0.99941666     0.10000
C577        C  0.92644711  0.03034827  0.99012514     0.10400
C578        C  0.94331622  0.05825260  0.99039608    -0.16900
C579        C  0.93346839  0.07534628  0.99893866    -0.27300
C580        C  0.90591226  0.06413950  0.00760611     0.18700
C581        C  0.88117119  0.98967929  0.00135575     0.12700
C582        C  0.93777153  0.01280875  0.97963587    -0.11700
H583        H  0.96435577  0.06684650  0.98345479     0.13000
C584        C  0.89380019  0.08090781  0.01845220    -0.22500
H585        H  0.86802565  0.02735667  0.01477746     0.08600
C586        C  0.88008758  0.97526198  0.03446526     0.05000
C587        C  0.86670008  0.94716998  0.03294886    -0.19700
C588        C  0.85423185  0.93301619  0.99906569    -0.12000
C589        C  0.85386575  0.94763409  0.96656437     0.13700
C590        C  0.86740455  0.97578941  0.96825961    -0.22400
C591        C  0.89367763  0.98961570  0.07109858    -0.05500
H592        H  0.86668444  0.93624768  0.05813633     0.15200
C593        C  0.84059387  0.93411995  0.92928685    -0.15700
H594        H  0.86830542  0.98714659  0.94306278     0.09500
H595        H  0.88434553  0.07478167  0.04726377     0.07400
H596        H  0.87819660  0.07765610  0.99719694     0.08600
H597        H  0.90864893  0.10262976  0.01982873     0.07600
H598        H  0.92723693  0.00052773  0.95398572     0.02500
H599        H  0.93514157  0.99930499  0.00386334     0.03000
H600        H  0.95947928  0.02482898  0.97282154     0.06500
H601        H  0.89080973  0.97535443  0.09438863     0.05500
H602        H  0.88522075  0.00203533  0.08092180    -0.00300
H603        H  0.91551796  0.00278635  0.06620328     0.01200
H604        H  0.84304306  0.94884514  0.90696505     0.04800
H605        H  0.81877093  0.92058314  0.93392438     0.06800
H606        H  0.84961715  0.92255896  0.91794516     0.07700
C607        C  0.02864471  0.88686470  0.51223644    -0.22000
C608        C  0.01308604  0.89592577  0.49453022     0.10000
C609        C  0.02565259  0.92071686  0.47540527     0.10400
C610        C  0.05358995  0.93598743  0.47433423    -0.16900
C611        C  0.06965546  0.92745473  0.49244289    -0.27300
C612        C  0.05683066  0.90230058  0.51160629     0.18700
C613        C  0.98357714  0.88014825  0.49765955     0.12700
C614        C  0.00952663  0.93134414  0.45663216    -0.11700
H615        H  0.06283893  0.95512658  0.45971773     0.13000
C616        C  0.07232385  0.89140333  0.53146109    -0.22500
H617        H  0.01861330  0.86775474  0.52705145     0.08600
C618        C  0.96763701  0.86237913  0.46830371     0.05000
C619        C  0.93981451  0.85172693  0.46907953    -0.19700
C620        C  0.92772453  0.85832673  0.49875765    -0.12000
C621        C  0.94372373  0.87551337  0.52883073     0.13700
C622        C  0.97145196  0.88599159  0.52800244    -0.22400
C623        C  0.98011610  0.85515361  0.43592388    -0.05500
H624        H  0.92746597  0.83850513  0.44615334     0.15200
C625        C  0.93266220  0.88461771  0.56099027    -0.15700
H626        H  0.98390168  0.89996893  0.55015340     0.09500
H627        H  0.08588086  0.88961919  0.51064302     0.07400
H628        H  0.05887454  0.87119677  0.54372229     0.08600
H629        H  0.08409318  0.90480500  0.55556735     0.07600
H630        H  0.99691328  0.93376395  0.47847116     0.02500
H631        H  0.99644588  0.91721650  0.43405186     0.03000
H632        H  0.02254902  0.95115073  0.44296955     0.06500
H633        H  0.96480223  0.84090580  0.41541852     0.05500
H634        H  0.99099185  0.84560754  0.44774854    -0.00300
H635        H  0.99443388  0.87343168  0.41984941     0.01200
H636        H  0.93659211  0.87813029  0.58893754     0.04800
H637        H  0.91087763  0.87673555  0.55875348     0.06800
H638        H  0.94278267  0.90683920  0.56082724     0.07700
C639        C  0.06782544  0.09705829  0.48759928    -0.22000
C640        C  0.09558282  0.11262126  0.49243450     0.10000
C641        C  0.10784031  0.14071143  0.49579891     0.10400
C642        C  0.09194457  0.15265824  0.49413164    -0.16900
C643        C  0.06407508  0.13713973  0.48863794    -0.27300
C644        C  0.05186666  0.10883196  0.48572843     0.18700
C645        C  0.11116472  0.09874637  0.49378498     0.12700
C646        C  0.13765009  0.15797610  0.50117894    -0.11700
H647        H  0.10136251  0.17423612  0.49668818     0.13000
C648        C  0.02193800  0.09065305  0.48208411    -0.22500
H649        H  0.05859972  0.07547038  0.48538260     0.08600
C650        C  0.11404025  0.08768799  0.52818355     0.05000
C651        C  0.12691925  0.07268929  0.52740751    -0.19700
C652        C  0.13670425  0.06816862  0.49290708    -0.12000
C653        C  0.13477945  0.08027820  0.45868180     0.13700
C654        C  0.12176071  0.09513909  0.45956582    -0.22400
C655        C  0.10297228  0.09123575  0.56551096    -0.05500
H656        H  0.12839573  0.06353387  0.55365664     0.15200
C657        C  0.14674102  0.07864482  0.42094909    -0.15700
H658        H  0.11972676  0.10389184  0.43326175     0.09500
H659        H  0.01593392  0.06915584  0.48314178     0.07400
H660        H  0.01494967  0.09401949  0.45420169     0.08600
H661        H  0.01164855  0.09449897  0.50608452     0.07600
H662        H  0.14818605  0.15536545  0.47635239     0.02500
H663        H  0.14372405  0.15211082  0.52790323     0.03000
H664        H  0.14407001  0.17954552  0.50341898     0.06500
H665        H  0.10694035  0.08133910  0.58973817     0.05500
H666        H  0.08097128  0.08234169  0.56312043    -0.00300
H667        H  0.11237549  0.11289851  0.57234727     0.01200
H668        H  0.13052505  0.06754615  0.39966735     0.04800
H669        H  0.15878927  0.06882248  0.42322320     0.06800
H670        H  0.16036710  0.09921394  0.41001730     0.07700
C671        C  0.18176342  0.01940864  0.77766086    -0.22000
C672        C  0.17808093  0.99565823  0.76112357     0.10000
C673        C  0.17530678  0.97482726  0.78490373     0.10400
C674        C  0.17545706  0.97788387  0.82485486    -0.16900
C675        C  0.17817089  0.00124489  0.84175056    -0.27300
C676        C  0.18151800  0.02243176  0.81771602     0.18700
C677        C  0.17503292  0.99217860  0.71894877     0.12700
C678        C  0.17153759  0.94913488  0.76809242    -0.11700
H679        H  0.17309928  0.96171159  0.84311025     0.13000
C680        C  0.18327477  0.04774330  0.83262005    -0.22500
H681        H  0.18370847  0.03527966  0.75907215     0.08600
C682        C  0.15039851  0.98483661  0.70111960     0.05000
C683        C  0.14845708  0.98268892  0.66098631    -0.19700
C684        C  0.17052421  0.98751969  0.63849145    -0.12000
C685        C  0.19500455  0.99424406  0.65629434     0.13700
C686        C  0.19696382  0.99638749  0.69650879    -0.22400
C687        C  0.12625872  0.97950412  0.72446435    -0.05500
H688        H  0.12987380  0.97790230  0.64700101     0.15200
C689        C  0.21923054  0.00007545  0.63275477    -0.15700
H690        H  0.21575176  0.00189283  0.71046834     0.09500
H691        H  0.16729715  0.05016065  0.81919995     0.07400
H692        H  0.20303668  0.06525534  0.82480979     0.08600
H693        H  0.18061052  0.04789262  0.86403771     0.07600
H694        H  0.18913259  0.95348244  0.75009176     0.02500
H695        H  0.15321558  0.93941944  0.75008457     0.03000
H696        H  0.16939899  0.93476371  0.79079274     0.06500
H697        H  0.10852872  0.97364735  0.70601330     0.05500
H698        H  0.13059665  0.99781024  0.74068372    -0.00300
H699        H  0.12111291  0.96295803  0.74499068     0.01200
H700        H  0.23681841  0.00525186  0.65117085     0.04800
H701        H  0.22466519  0.01723649  0.61328595     0.06800
H702        H  0.21476372  0.98218486  0.61532656     0.07700
C703        C  0.18934359  0.98981475  0.20342327    -0.22000
C704        C  0.17329662  0.99839474  0.22104770     0.10000
C705        C  0.15714880  0.00466598  0.19860783     0.10400
C706        C  0.15681234  0.00143873  0.15874863    -0.16900
C707        C  0.17290842  0.99286861  0.14039468    -0.27300
C708        C  0.18966187  0.98719961  0.16333815     0.18700
C709        C  0.17387735  0.00089938  0.26319901     0.12700
C710        C  0.14085153  0.01548837  0.21661681    -0.11700
H711        H  0.14413213  0.00619402  0.14186981     0.13000
C712        C  0.20831522  0.97888582  0.14640888    -0.22500
H713        H  0.20186681  0.98536608  0.22126672     0.08600
C714        C  0.15426011  0.98028183  0.28621891     0.05000
C715        C  0.15523188  0.98382056  0.32606727    -0.19700
C716        C  0.17581679  0.00714256  0.34348123    -0.12000
C717        C  0.19584779  0.02756709  0.32030970     0.13700
C718        C  0.19444295  0.02424304  0.28026550    -0.22400
C719        C  0.13275838  0.95430616  0.26884079    -0.05500
H720        H  0.14020657  0.96792730  0.34384361     0.15200
C721        C  0.21828546  0.05307453  0.33733913    -0.15700
H722        H  0.20944636  0.03984372  0.26210785     0.09500
H723        H  0.21993001  0.97571098  0.16892415     0.07400
H724        H  0.22297594  0.99481000  0.12698666     0.08600
H725        H  0.19667656  0.95974238  0.13044462     0.07600
H726        H  0.15433550  0.03444264  0.23209335     0.02500
H727        H  0.12612780  0.00082311  0.23724390     0.03000
H728        H  0.12963575  0.01976248  0.19475274     0.06500
H729        H  0.11925682  0.94018362  0.29112974     0.05500
H730        H  0.14214238  0.94449197  0.25307098    -0.00300
H731        H  0.12034369  0.95808539  0.24858639     0.01200
H732        H  0.23127924  0.04858767  0.35529589     0.04800
H733        H  0.20991295  0.06303484  0.35511396     0.06800
H734        H  0.23112748  0.06736959  0.31472894     0.07700
C735        C  0.02496265  0.92696172  0.00855265    -0.22000
C736        C  0.01256221  0.89961840  0.99990085     0.10000
C737        C  0.02843566  0.88834525  0.99049044     0.10400
C738        C  0.05650046  0.90492140  0.98932025    -0.16900
C739        C  0.06902849  0.93244319  0.99788160    -0.27300
C740        C  0.05289658  0.94352701  0.00794289     0.18700
C741        C  0.98284726  0.88397215  0.99881469     0.12700
C742        C  0.01575502  0.85885902  0.98207056    -0.11700
H743        H  0.06872409  0.89632887  0.98185221     0.13000
C744        C  0.06466659  0.97297941  0.01650357    -0.22500
H745        H  0.01254561  0.93546366  0.01533320     0.08600
C746        C  0.96738853  0.87772154  0.03267221     0.05000
C747        C  0.93961071  0.86695966  0.02992278    -0.19700
C748        C  0.92682423  0.86228975  0.99411207    -0.12000
C749        C  0.94238837  0.86806255  0.96008546     0.13700
C750        C  0.97011534  0.87849437  0.96303702    -0.22400
C751        C  0.98022872  0.88242922  0.07167165    -0.05500
H752        H  0.92778007  0.86235762  0.05600230     0.15200
C753        C  0.93118738  0.86534301  0.92018854    -0.15700
H754        H  0.98216347  0.88377178  0.93711936     0.09500
H755        H  0.07681940  0.97852461  0.04314017     0.07400
H756        H  0.04889938  0.97819794  0.02111569     0.08600
H757        H  0.07728147  0.98511103  0.99204249     0.07600
H758        H  0.00251572  0.85345886  0.95663568     0.02500
H759        H  0.00373464  0.84713468  0.00723570     0.03000
H760        H  0.03104269  0.85317949  0.97601972     0.06500
H761        H  0.96516606  0.87579056  0.09514491     0.05500
H762        H  0.99479681  0.90407667  0.07592038    -0.00300
H763        H  0.99080224  0.87103117  0.07401926     0.01200
H764        H  0.94268986  0.88478912  0.90496817     0.04800
H765        H  0.90998676  0.85994730  0.91963011     0.06800
H766        H  0.93322570  0.84993375  0.90394939     0.07700
C767        C  0.14867909  0.11298800  0.98352499    -0.22000
C768        C  0.12095968  0.10066222  0.98957520     0.10000
C769        C  0.10582965  0.07286390  0.99624791     0.10400
C770        C  0.11869217  0.05798984  0.99673975    -0.16900
C771        C  0.14647523  0.07002556  0.99075442    -0.27300
C772        C  0.16178327  0.09811942  0.98446341     0.18700
C773        C  0.10765528  0.11677014  0.98878355     0.12700
C774        C  0.07599701  0.05881386  0.00286408    -0.11700
H775        H  0.10675304  0.03655825  0.00148010     0.13000
C776        C  0.19183477  0.11342436  0.98033216    -0.22500
H777        H  0.16023491  0.13444630  0.97869704     0.08600
C778        C  0.10469078  0.12874935  0.02236900     0.05000
C779        C  0.08837357  0.14020186  0.02155955    -0.19700
C780        C  0.07486047  0.13982836  0.98794772    -0.12000
C781        C  0.07807508  0.12793164  0.95416405     0.13700
C782        C  0.09479199  0.11699432  0.95497043    -0.22400
C783        C  0.11822893  0.12881635  0.05921792    -0.05500
H784        H  0.08587367  0.14920510  0.04741244     0.15200
C785        C  0.06295441  0.12464659  0.91742949    -0.15700
H786        H  0.09667545  0.10723260  0.92949194     0.09500
H787        H  0.20064261  0.12987724  0.00186737     0.07400
H788        H  0.19738412  0.12228712  0.95114702     0.08600
H789        H  0.20107584  0.10108025  0.98518674     0.07600
H790        H  0.06601774  0.06119471  0.97730956     0.02500
H791        H  0.07162937  0.06753055  0.02835929     0.03000
H792        H  0.06725487  0.03701638  0.00798240     0.06500
H793        H  0.11383253  0.13896997  0.08282982     0.05500
H794        H  0.14024925  0.13952150  0.05484655    -0.00300
H795        H  0.11117908  0.10790644  0.06823097     0.01200
H796        H  0.07735006  0.13585518  0.89399576     0.04800
H797        H  0.04840765  0.13156212  0.91951698     0.06800
H798        H  0.05139972  0.10307233  0.90946332     0.07700
C799        C  0.68608146  0.75569372  0.92542208    -0.22000
C800        C  0.67620309  0.77241310  0.91538751     0.10000
C801        C  0.69077822  0.79976910  0.92542306     0.10400
C802        C  0.71527137  0.80994883  0.94481303    -0.16900
C803        C  0.72554045  0.79338079  0.95449904    -0.27300
C804        C  0.71076480  0.76579926  0.94421077     0.18700
C805        C  0.65028309  0.76058361  0.89486973     0.12700
C806        C  0.68060071  0.81821487  0.91519721    -0.11700
H807        H  0.72668909  0.83108227  0.95200857     0.13000
C808        C  0.72073016  0.74655339  0.95011577    -0.22500
H809        H  0.67475301  0.73466548  0.91747935     0.08600
C810        C  0.64850324  0.75701385  0.85457854     0.05000
C811        C  0.62314382  0.74360509  0.83701227    -0.19700
C812        C  0.59970796  0.73355903  0.85906478    -0.12000
C813        C  0.60167357  0.73837612  0.89922053     0.13700
C814        C  0.62694217  0.75170200  0.91657332    -0.22400
C815        C  0.67331652  0.76674322  0.83040454    -0.05500
H816        H  0.62156552  0.73971571  0.80636701     0.15200
C817        C  0.57751503  0.72962128  0.92471870    -0.15700
H818        H  0.62844133  0.75478069  0.94742053     0.09500
H819        H  0.72091226  0.73738081  0.92211536     0.07400
H820        H  0.70701982  0.73036328  0.96998453     0.08600
H821        H  0.74126760  0.75592193  0.96165032     0.07600
H822        H  0.66087921  0.81117806  0.92911345     0.02500
H823        H  0.67831020  0.81839324  0.88356436     0.03000
H824        H  0.69453033  0.83908922  0.92485025     0.06500
H825        H  0.66840735  0.76240326  0.79942719     0.05500
H826        H  0.68435277  0.75669566  0.83947655    -0.00300
H827        H  0.68647458  0.78874376  0.83392933     0.01200
H828        H  0.57620591  0.71473736  0.94591104     0.04800
H829        H  0.55843704  0.72062839  0.90856105     0.06800
H830        H  0.57953309  0.74726116  0.94046746     0.07700
C831        C  0.53817753  0.68074430  0.52255858    -0.22000
C832        C  0.51447922  0.66822379  0.54410704     0.10000
C833        C  0.48964542  0.65325919  0.52528959     0.10400
C834        C  0.48907465  0.65106137  0.48514106    -0.16900
C835        C  0.51273888  0.66369721  0.46326044    -0.27300
C836        C  0.53769237  0.67912648  0.48226872     0.18700
C837        C  0.51598265  0.67071679  0.58647705     0.12700
C838        C  0.46375103  0.63987120  0.54759871    -0.11700
H839        H  0.46996291  0.63969798  0.47062794     0.13000
C840        C  0.56404583  0.69545613  0.46149959    -0.22500
H841        H  0.55716148  0.69242272  0.53728171     0.08600
C842        C  0.51777668  0.65167999  0.60925603     0.05000
C843        C  0.51688063  0.65338617  0.64933691    -0.19700
C844        C  0.51446216  0.67382640  0.66722079    -0.12000
C845        C  0.51325045  0.69331302  0.64434240     0.13700
C846        C  0.51418341  0.69155164  0.60413255    -0.22400
C847        C  0.52030557  0.62939732  0.59118599    -0.05500
H848        H  0.51781124  0.63848764  0.66691415     0.15200
C849        C  0.50961520  0.71531293  0.66098351    -0.15700
H850        H  0.51267025  0.70604751  0.58637801     0.09500
H851        H  0.57764002  0.68794385  0.46901733     0.07400
H852        H  0.57351833  0.71675178  0.47061925     0.08600
H853        H  0.56220279  0.69517734  0.42990329     0.07600
H854        H  0.46156697  0.65518314  0.56383790     0.02500
H855        H  0.46365793  0.62521154  0.56807966     0.03000
H856        H  0.44612633  0.62900525  0.52841825     0.06500
H857        H  0.52151345  0.61622728  0.61315355     0.05500
H858        H  0.53874664  0.63802292  0.57335247    -0.00300
H859        H  0.50266690  0.61685568  0.57271666     0.01200
H860        H  0.52697501  0.73509299  0.65293349     0.04800
H861        H  0.50774484  0.71453227  0.69267447     0.06800
H862        H  0.49109554  0.71369487  0.64915348     0.07700
C863        C  0.53457054  0.69044047  0.10576791    -0.22000
C864        C  0.51011239  0.68042102  0.08652998     0.10000
C865        C  0.48678870  0.67395084  0.10759585     0.10400
C866        C  0.48820986  0.67647029  0.14773092    -0.16900
C867        C  0.51244526  0.68546637  0.16736176    -0.27300
C868        C  0.53607830  0.69290215  0.14600227     0.18700
C869        C  0.50900126  0.67582172  0.04447985     0.12700
C870        C  0.46035437  0.66409372  0.08770075    -0.11700
H871        H  0.47010756  0.67064733  0.16406095     0.13000
C872        C  0.56286412  0.70192099  0.16435851    -0.22500
H873        H  0.55244803  0.69546450  0.08935547     0.08600
C874        C  0.51587181  0.69676332  0.01821444     0.05000
C875        C  0.51274154  0.69103294  0.97875834    -0.19700
C876        C  0.50315299  0.66489088  0.96487840    -0.12000
C877        C  0.49651336  0.64391234  0.99125210     0.13700
C878        C  0.49969102  0.64972788  0.03077423    -0.22400
C879        C  0.52616965  0.72504233  0.03187528    -0.05500
H880        H  0.51793602  0.70712589  0.95851265     0.15200
C881        C  0.48493480  0.61512025  0.97908542    -0.15700
H882        H  0.49425075  0.63366197  0.05116513     0.09500
H883        H  0.57758117  0.72246253  0.15440306     0.07400
H884        H  0.57001094  0.68816759  0.15565558     0.08600
H885        H  0.56239056  0.70216782  0.19610023     0.07600
H886        H  0.45441212  0.64510446  0.07219661     0.02500
H887        H  0.46217113  0.67937206  0.06682968     0.03000
H888        H  0.44417203  0.66026824  0.10838707     0.06500
H889        H  0.53043059  0.73898323  0.00752210     0.05500
H890        H  0.54502154  0.73221610  0.04822452    -0.00300
H891        H  0.51104107  0.72569295  0.05074412     0.01200
H892        H  0.49858113  0.60797298  0.98800411     0.04800
H893        H  0.48168183  0.61206414  0.94771223     0.06800
H894        H  0.46520549  0.60257660  0.99327016     0.07700
C895        C  0.69982361  0.80887602  0.41052466    -0.22000
C896        C  0.67942378  0.78195181  0.41359766     0.10000
C897        C  0.68286829  0.76489526  0.43873313     0.10400
C898        C  0.70711962  0.77475686  0.45867520    -0.16900
C899        C  0.72815867  0.80135119  0.45433364    -0.27300
C900        C  0.72424727  0.81880978  0.43032560     0.18700
C901        C  0.65526479  0.77125090  0.38866749     0.12700
C902        C  0.66107588  0.73608196  0.44399206    -0.11700
H903        H  0.71009472  0.76130000  0.47672807     0.13000
C904        C  0.74575096  0.84743944  0.42275772    -0.22500
H905        H  0.69712515  0.82195230  0.39124411     0.08600
C906        C  0.63321978  0.77415082  0.39837264     0.05000
C907        C  0.60935507  0.76017306  0.37704635    -0.19700
C908        C  0.60698435  0.74311896  0.34658053    -0.12000
C909        C  0.62959216  0.74147802  0.33554485     0.13700
C910        C  0.65348629  0.75572705  0.35651928    -0.22400
C911        C  0.63445877  0.79085608  0.43239675    -0.05500
H912        H  0.59190912  0.76112240  0.38584671     0.15200
C913        C  0.62893202  0.72433800  0.30240363    -0.15700
H914        H  0.67051907  0.75373100  0.34880576     0.09500
H915        H  0.73851130  0.86104308  0.43186947     0.07400
H916        H  0.75028304  0.85016813  0.39152497     0.08600
H917        H  0.76472765  0.85362223  0.43797023     0.07600
H918        H  0.65691665  0.72511772  0.41629260     0.02500
H919        H  0.64252053  0.73520386  0.45435293     0.03000
H920        H  0.66680079  0.72565636  0.46524147     0.06500
H921        H  0.61537392  0.79069106  0.43644451     0.05500
H922        H  0.65073355  0.81193535  0.42811538    -0.00300
H923        H  0.63846957  0.78291057  0.45890425     0.01200
H924        H  0.64470156  0.73704222  0.28126837     0.04800
H925        H  0.60947371  0.71439405  0.28710809     0.06800
H926        H  0.63286273  0.70864241  0.31304733     0.07700
C927        C  0.35819190  0.56803199  0.84633797    -0.22000
C928        C  0.34580110  0.55933409  0.81051377     0.10000
C929        C  0.36156293  0.56526040  0.77708526     0.10400
C930        C  0.38951637  0.58113247  0.78000949    -0.16900
C931        C  0.40202075  0.59165581  0.81556966    -0.27300
C932        C  0.38612736  0.58414354  0.84942293     0.18700
C933        C  0.31638396  0.54686963  0.80847365     0.12700
C934        C  0.34880570  0.55535538  0.73829811    -0.11700
H935        H  0.40150588  0.58647306  0.75408960     0.13000
C936        C  0.39822899  0.59285073  0.88888924    -0.22500
H937        H  0.34580967  0.56310136  0.87185270     0.08600
C938        C  0.29879678  0.51966597  0.81738233     0.05000
C939        C  0.27105855  0.50964182  0.81777597    -0.19700
C940        C  0.26077249  0.52643549  0.81006649    -0.12000
C941        C  0.27845896  0.55345981  0.79962369     0.13700
C942        C  0.30605490  0.56333486  0.79926090    -0.22400
C943        C  0.30936163  0.50145376  0.82695354    -0.05500
H944        H  0.25742850  0.48892742  0.82554847     0.15200
C945        C  0.26902975  0.57236465  0.78808897    -0.15700
H946        H  0.31971010  0.58418458  0.79208025     0.09500
H947        H  0.41373703  0.58729419  0.89324898     0.07400
H948        H  0.38293299  0.58307386  0.91186001     0.08600
H949        H  0.40719889  0.61479742  0.89243901     0.07600
H950        H  0.33574838  0.56362400  0.73149965     0.02500
H951        H  0.33656590  0.53312855  0.73844092     0.03000
H952        H  0.36403784  0.56150879  0.71514558     0.06500
H953        H  0.29289372  0.48070811  0.83297436     0.05500
H954        H  0.32230960  0.50907416  0.85279823    -0.00300
H955        H  0.32126667  0.50072956  0.80243067     0.01200
H956        H  0.27668844  0.58926821  0.80885519     0.04800
H957        H  0.24695102  0.56265771  0.78665298     0.06800
H958        H  0.27693916  0.58051749  0.75907186     0.07700
C959        C  0.09349784  0.35436933  0.87749349    -0.22000
C960        C  0.11273008  0.35059692  0.89598307     0.10000
C961        C  0.14012939  0.36995154  0.89182103     0.10400
C962        C  0.14761157  0.39332253  0.87057444    -0.16900
C963        C  0.12825943  0.39766539  0.85341381    -0.27300
C964        C  0.10088432  0.37750185  0.85596728     0.18700
C965        C  0.10345512  0.32550535  0.91795332     0.12700
C966        C  0.16131775  0.36628605  0.91079903    -0.11700
H967        H  0.16854767  0.40884353  0.86896180     0.13000
C968        C  0.07897541  0.37948707  0.83587954    -0.22500
H969        H  0.07251169  0.33905312  0.87980386     0.08600
C970        C  0.09162485  0.32163815  0.95459054     0.05000
C971        C  0.07963601  0.29614634  0.97165916    -0.19700
C972        C  0.07903557  0.27424253  0.95286193    -0.12000
C973        C  0.09261700  0.27891517  0.91688757     0.13700
C974        C  0.10452229  0.30444626  0.90015635    -0.22400
C975        C  0.09136065  0.34436242  0.97535416    -0.05500
H976        H  0.06983631  0.29317647  0.99926780     0.15200
C977        C  0.09408245  0.25727481  0.89464880    -0.15700
H978        H  0.11385824  0.30781165  0.87209485     0.09500
H979        H  0.06520657  0.38014177  0.85749788     0.07400
H980        H  0.06744577  0.36160427  0.81724297     0.08600
H981        H  0.08668771  0.39732781  0.81713765     0.07600
H982        H  0.16045507  0.34791949  0.89950930     0.02500
H983        H  0.15793925  0.36434305  0.94232581     0.03000
H984        H  0.18173575  0.38353423  0.90531047     0.06500
H985        H  0.08169243  0.33812100  0.00402622     0.05500
H986        H  0.08015884  0.35158132  0.95833277    -0.00300
H987        H  0.11223738  0.36112587  0.97954144     0.01200
H988        H  0.07370274  0.24133852  0.88594279     0.04800
H989        H  0.10379247  0.24874740  0.91239849     0.06800
H990        H  0.10608449  0.26508639  0.86791021     0.07700
C991        C  0.13739181  0.46391149  0.52844890    -0.22000
C992        C  0.15054731  0.48744106  0.55039552     0.10000
C993        C  0.16278577  0.51258665  0.53200921     0.10400
C994        C  0.16205147  0.51364921  0.49181166    -0.16900
C995        C  0.14917317  0.49013260  0.46958293    -0.27300
C996        C  0.13658219  0.46490455  0.48816883     0.18700
C997        C  0.15150114  0.48545777  0.59268010     0.12700
C998        C  0.17681965  0.53825991  0.55485580    -0.11700
H999        H  0.17187126  0.53294490  0.47758570     0.13000
C1000       C  0.12347395  0.43901016  0.46572668    -0.22500
H1001       H  0.12809619  0.44472478  0.54292958     0.08600
C1002       C  0.13107790  0.48416421  0.61623496     0.05000
C1003       C  0.13397090  0.48482136  0.65624518    -0.19700
C1004       C  0.15661170  0.48630590  0.67322686    -0.12000
C1005       C  0.17660587  0.48657029  0.64961745     0.13700
C1006       C  0.17382726  0.48622466  0.60948003    -0.22400
C1007       C  0.10649854  0.48255749  0.59908185    -0.05500
H1008       H  0.11856844  0.48448035  0.67449069     0.15200
C1009       C  0.20138258  0.48849649  0.66655182    -0.15700
H1010       H  0.18942664  0.48720345  0.59103270     0.09500
H1011       H  0.11582900  0.42130885  0.48485432     0.07400
H1012       H  0.13820164  0.43860313  0.44564665     0.08600
H1013       H  0.10624054  0.43705642  0.44924084     0.07600
H1014       H  0.19351763  0.53908686  0.57147172     0.02500
H1015       H  0.16246662  0.53922839  0.57503925     0.03000
H1016       H  0.18525005  0.55616979  0.53602169     0.06500
H1017       H  0.09245979  0.48169821  0.62160134     0.05500
H1018       H  0.09575236  0.46422180  0.58108979    -0.00300
H1019       H  0.11234941  0.50042228  0.58097940     0.01200
H1020       H  0.19578155  0.47062007  0.68450018     0.04800
H1021       H  0.21207974  0.50685289  0.68452037     0.06800
H1022       H  0.21538909  0.48947896  0.64389382     0.07700
C1023       C  0.14949455  0.46374725  0.02780237    -0.22000
C1024       C  0.16215432  0.48680412  0.05082303     0.10000
C1025       C  0.17331984  0.51230879  0.03366573     0.10400
C1026       C  0.17166670  0.51419285  0.99374557    -0.16900
C1027       C  0.15884662  0.49118143  0.97059408    -0.27300
C1028       C  0.14788962  0.46553772  0.98778914     0.18700
C1029       C  0.16283595  0.48400125  0.09302920     0.12700
C1030       C  0.18653147  0.53753145  0.05756888    -0.11700
H1031       H  0.18023916  0.53376469  0.98049837     0.13000
C1032       C  0.13545661  0.43971029  0.96509205    -0.22500
H1033       H  0.14108986  0.44421267  0.04114120     0.08600
C1034       C  0.14021588  0.47749454  0.11587845     0.05000
C1035       C  0.14256692  0.47822151  0.15596313    -0.19700
C1036       C  0.16694332  0.48518209  0.17374990    -0.12000
C1037       C  0.18944291  0.49094631  0.15089711     0.13700
C1038       C  0.18700736  0.49005200  0.11069209    -0.22400
C1039       C  0.11387565  0.47072586  0.09800738    -0.05500
H1040       H  0.12540982  0.47396121  0.17364607     0.15200
C1041       C  0.21651886  0.49944349  0.16772996    -0.15700
H1042       H  0.20436137  0.49512535  0.09296291     0.09500
H1043       H  0.11405106  0.42698067  0.97323945     0.07400
H1044       H  0.14598718  0.42870845  0.97177953     0.08600
H1045       H  0.13669355  0.44266194  0.93362579     0.07600
H1046       H  0.20410768  0.53923897  0.07278757     0.02500
H1047       H  0.17203384  0.53702204  0.07896577     0.03000
H1048       H  0.19361588  0.55573393  0.03965844     0.06500
H1049       H  0.09841381  0.46670257  0.12010806     0.05500
H1050       H  0.10636099  0.45251714  0.07982213    -0.00300
H1051       H  0.11655187  0.48768695  0.08002843     0.01200
H1052       H  0.22284698  0.48510586  0.15871592     0.04800
H1053       H  0.21674610  0.50032492  0.19952403     0.06800
H1054       H  0.23140052  0.51971503  0.15696718     0.07700
C1055       C  0.36449621  0.56615760  0.35034263    -0.22000
C1056       C  0.35003047  0.56245905  0.31647036     0.10000
C1057       C  0.36394392  0.57359615  0.28183197     0.10400
C1058       C  0.39206318  0.58898563  0.28213224    -0.16900
C1059       C  0.40658066  0.59411450  0.31646085    -0.27300
C1060       C  0.39259859  0.58160663  0.35079206     0.18700
C1061       C  0.32048022  0.54976907  0.31892575     0.12700
C1062       C  0.34907573  0.57041026  0.24496202    -0.11700
H1063       H  0.40264979  0.59847327  0.25581910     0.13000
C1064       C  0.40651020  0.58382895  0.38830106    -0.22500
H1065       H  0.35372067  0.55742432  0.37685938     0.08600
C1066       C  0.30289292  0.52216789  0.31244252     0.05000
C1067       C  0.27505629  0.51160478  0.31504000    -0.19700
C1068       C  0.26440224  0.52793608  0.32476159    -0.12000
C1069       C  0.28235506  0.55574561  0.33136185     0.13700
C1070       C  0.31004642  0.56614775  0.32828553    -0.22400
C1071       C  0.31352690  0.50388266  0.30330716    -0.05500
H1072       H  0.26156681  0.49040432  0.30992580     0.15200
C1073       C  0.27279428  0.57499733  0.34049252    -0.15700
H1074       H  0.32380336  0.58734306  0.33314315     0.09500
H1075       H  0.39980102  0.56342222  0.39938168     0.07400
H1076       H  0.40122019  0.59467889  0.40966654     0.08600
H1077       H  0.42857787  0.59419579  0.38555556     0.07600
H1078       H  0.33607557  0.57919792  0.24830607     0.02500
H1079       H  0.33647245  0.54886214  0.23755765     0.03000
H1080       H  0.36299680  0.58063724  0.22060833     0.06500
H1081       H  0.29709211  0.48282088  0.29925181     0.05500
H1082       H  0.32637298  0.50439651  0.32722731    -0.00300
H1083       H  0.32556897  0.51045696  0.27650720     0.01200
H1084       H  0.26258516  0.57013910  0.36883349     0.04800
H1085       H  0.25892836  0.57396657  0.31775721     0.06800
H1086       H  0.28964772  0.59606220  0.34209612     0.07700
C1087       C  0.08545548  0.31998811  0.45206913    -0.22000
C1088       C  0.10052961  0.32134378  0.41959373     0.10000
C1089       C  0.10342665  0.29914694  0.41052197     0.10400
C1090       C  0.08960060  0.27552647  0.43248151    -0.16900
C1091       C  0.07266088  0.27347270  0.46289353    -0.27300
C1092       C  0.07124055  0.29629987  0.47348014     0.18700
C1093       C  0.11111637  0.34541306  0.39427396     0.12700
C1094       C  0.11974264  0.29975796  0.37638931    -0.11700
H1095       H  0.09040742  0.25793472  0.42403046     0.13000
C1096       C  0.05428418  0.29606793  0.50654557    -0.22500
H1097       H  0.08370979  0.33719764  0.45967371     0.08600
C1098       C  0.09354219  0.35084681  0.37341084     0.05000
C1099       C  0.10377617  0.37534899  0.35396925    -0.19700
C1100       C  0.13128822  0.39446350  0.35387598    -0.12000
C1101       C  0.14911004  0.38815963  0.37233654     0.13700
C1102       C  0.13877249  0.36382785  0.39261440    -0.22400
C1103       C  0.06390799  0.33081773  0.37163374    -0.05500
H1104       H  0.09006996  0.37995528  0.33953682     0.15200
C1105       C  0.17885805  0.40758710  0.37256249    -0.15700
H1106       H  0.15224529  0.35958352  0.40840219     0.09500
H1107       H  0.03853434  0.29984786  0.49569128     0.07400
H1108       H  0.06707102  0.31213228  0.52729155     0.08600
H1109       H  0.04445792  0.27680233  0.52233601     0.07600
H1110       H  0.14097539  0.31573002  0.38030182     0.02500
H1111       H  0.11179663  0.30372217  0.34986604     0.03000
H1112       H  0.11916626  0.28042917  0.37263262     0.06500
H1113       H  0.05331215  0.33775599  0.35265391     0.05500
H1114       H  0.05482680  0.32759221  0.40063900    -0.00300
H1115       H  0.06058923  0.31145620  0.36013221     0.01200
H1116       H  0.18319294  0.42682127  0.38587157     0.04800
H1117       H  0.18665466  0.41123035  0.34265814     0.06800
H1118       H  0.18973484  0.39973736  0.38906472     0.07700
C1119       C  0.26217687  0.90684450  0.88245343    -0.22000
C1120       C  0.24069552  0.88866391  0.90542267     0.10000
C1121       C  0.23522245  0.86210119  0.90897395     0.10400
C1122       C  0.25166632  0.85441562  0.88976208    -0.16900
C1123       C  0.27383709  0.87294130  0.86801193    -0.27300
C1124       C  0.27905754  0.89944829  0.86414984     0.18700
C1125       C  0.22492210  0.89848288  0.92620361     0.12700
C1126       C  0.21269163  0.84225669  0.93410648    -0.11700
H1127       H  0.24795659  0.83420419  0.89318108     0.13000
C1128       C  0.30231060  0.91994848  0.84057688    -0.22500
H1129       H  0.26613847  0.92718962  0.87969148     0.08600
C1130       C  0.23532929  0.91507473  0.95883178     0.05000
C1131       C  0.22168898  0.92718912  0.97431620    -0.19700
C1132       C  0.19787014  0.92347843  0.95776442    -0.12000
C1133       C  0.18649285  0.90511952  0.92648848     0.13700
C1134       C  0.20026834  0.89296860  0.91125089    -0.22400
C1135       C  0.26114291  0.92038010  0.97695917    -0.05500
H1136       H  0.23047030  0.94058681  0.99858039     0.15200
C1137       C  0.16029233  0.89844322  0.90812576    -0.15700
H1138       H  0.19228728  0.87984484  0.88638969     0.09500
H1139       H  0.32151332  0.92404980  0.85343594     0.07400
H1140       H  0.30266862  0.93926966  0.83922114     0.08600
H1141       H  0.30079856  0.91240479  0.81078919     0.07600
H1142       H  0.19334549  0.83922271  0.92344693     0.02500
H1143       H  0.21587922  0.84993457  0.96408095     0.03000
H1144       H  0.21146939  0.82250181  0.93437191     0.06500
H1145       H  0.26623789  0.93341112  0.00276299     0.05500
H1146       H  0.27788257  0.93054093  0.95613923    -0.00300
H1147       H  0.25927601  0.90113051  0.98586120     0.01200
H1148       H  0.15404127  0.88262253  0.88576354     0.04800
H1149       H  0.16220579  0.91640630  0.89385132     0.06800
H1150       H  0.14423543  0.89085115  0.93022213     0.07700
C1151       C  0.26439788  0.69671052  0.82255002    -0.22000
C1152       C  0.23671528  0.68596634  0.82491781     0.10000
C1153       C  0.22629153  0.70324290  0.82659636     0.10400
C1154       C  0.24405106  0.73114371  0.82682099    -0.16900
C1155       C  0.27191835  0.74196048  0.82524113    -0.27300
C1156       C  0.28213114  0.72441344  0.82170243     0.18700
C1157       C  0.21943202  0.65642908  0.82462951     0.12700
C1158       C  0.19655213  0.69219103  0.82833160    -0.11700
H1159       H  0.23619730  0.74453023  0.82910937     0.13000
C1160       C  0.31138727  0.73390352  0.81527551    -0.22500
H1161       H  0.27220679  0.68326093  0.82039219     0.08600
C1162       C  0.21317853  0.64183605  0.78996537     0.05000
C1163       C  0.20061757  0.61381767  0.79115878    -0.19700
C1164       C  0.19472279  0.60003208  0.82627259    -0.12000
C1165       C  0.19989415  0.61470814  0.86108185     0.13700
C1166       C  0.21212977  0.64276519  0.85971016    -0.22400
C1167       C  0.22050293  0.65593870  0.75175131    -0.05500
H1168       H  0.19656405  0.60274590  0.76445141     0.15200
C1169       C  0.19252169  0.60112062  0.89971752    -0.15700
H1170       H  0.21700831  0.65423250  0.88616427     0.09500
H1171       H  0.31350700  0.72379123  0.78945896     0.07400
H1172       H  0.31942682  0.72864583  0.84051073     0.08600
H1173       H  0.32387412  0.75568996  0.80991227     0.07600
H1174       H  0.18810441  0.67966385  0.85440526     0.02500
H1175       H  0.18685410  0.67971123  0.80248693     0.03000
H1176       H  0.19172035  0.70842805  0.82937380     0.06500
H1177       H  0.21402664  0.64153484  0.72740619     0.05500
H1178       H  0.24254765  0.66938434  0.74975532    -0.00300
H1179       H  0.21069124  0.66801044  0.74871149     0.01200
H1180       H  0.20477258  0.59185581  0.90583449     0.04800
H1181       H  0.17092784  0.58554731  0.90016909     0.06800
H1182       H  0.19617651  0.61555858  0.92330990     0.07700
C1183       C  0.43754555  0.79305731  0.84977423    -0.22000
C1184       C  0.44443232  0.78897242  0.81281592     0.10000
C1185       C  0.43704068  0.79839210  0.78067621     0.10400
C1186       C  0.42149593  0.81037152  0.78607889    -0.16900
C1187       C  0.41279779  0.81278792  0.82290525    -0.27300
C1188       C  0.42182770  0.80488037  0.85536031     0.18700
C1189       C  0.45613411  0.77165025  0.80834755     0.12700
C1190       C  0.44503164  0.79518483  0.74066459    -0.11700
H1191       H  0.41506162  0.81671290  0.76111842     0.13000
C1192       C  0.41519087  0.80881246  0.89591035    -0.22500
H1193       H  0.44357727  0.78590395  0.87426932     0.08600
C1194       C  0.48371834  0.78137844  0.81296549     0.05000
C1195       C  0.49308343  0.76329332  0.81124833    -0.19700
C1196       C  0.47532965  0.73576327  0.80539678    -0.12000
C1197       C  0.44785981  0.72637402  0.79870143     0.13700
C1198       C  0.43863279  0.74442729  0.80077658    -0.22400
C1199       C  0.50305075  0.81065990  0.82031857     0.03500
H1200       H  0.51411523  0.77047880  0.81610783     0.15200
C1201       C  0.42772570  0.69765179  0.78858053    -0.15700
H1202       H  0.41749485  0.73717955  0.79663649     0.09500
H1203       H  0.42130293  0.83014924  0.90054484     0.07400
H1204       H  0.42584175  0.80351776  0.91739318     0.08600
H1205       H  0.39343610  0.79579518  0.90146224     0.07600
H1206       H  0.43641632  0.77361394  0.73387872     0.02500
H1207       H  0.46720061  0.80552513  0.73860052     0.03000
H1208       H  0.43784106  0.80391240  0.71873037     0.06500
H1209       H  0.52394339  0.81494959  0.82310750     0.05500
H1210       H  0.49756692  0.81695300  0.84733950    -0.00300
H1211       H  0.50236570  0.82270390  0.79612178     0.01200
H1212       H  0.41249866  0.68860879  0.81177645     0.04800
H1213       H  0.43683398  0.68509769  0.78392152     0.06800
H1214       H  0.41748429  0.69710796  0.76140894     0.07700
C1215       C  0.33081242  0.86696309  0.53802904    -0.22000
C1216       C  0.33269380  0.84746809  0.55910908     0.10000
C1217       C  0.33704275  0.82858476  0.53989402     0.10400
C1218       C  0.33954705  0.82965841  0.49982807    -0.16900
C1219       C  0.33773445  0.84914388  0.47827167    -0.27300
C1220       C  0.33313163  0.86801822  0.49774902     0.18700
C1221       C  0.33164127  0.84794459  0.60153561     0.12700
C1222       C  0.33910469  0.80732196  0.56175784    -0.11700
H1223       H  0.34290033  0.81506851  0.48522731     0.13000
C1224       C  0.32970126  0.88868945  0.47651685    -0.22500
H1225       H  0.32753982  0.88141154  0.55325614     0.08600
C1226       C  0.35518932  0.86325648  0.62297904     0.05000
C1227       C  0.35402168  0.86138808  0.66304307    -0.19700
C1228       C  0.32987530  0.84437763  0.68245872    -0.12000
C1229       C  0.30605037  0.82953264  0.66086142     0.13700
C1230       C  0.30727927  0.83154425  0.62052177    -0.22400
C1231       C  0.38169110  0.88112004  0.60348753    -0.05500
H1232       H  0.37229993  0.87310452  0.67931221     0.15200
C1233       C  0.27961557  0.81075881  0.67976792    -0.15700
H1234       H  0.28933365  0.81976772  0.60359981     0.09500
H1235       H  0.32492752  0.90076206  0.49635551     0.07400
H1236       H  0.31300286  0.87865288  0.45562291     0.08600
H1237       H  0.34849178  0.90274509  0.46123243     0.07600
H1238       H  0.32024828  0.79462317  0.57788418     0.02500
H1239       H  0.35605410  0.81684974  0.58229308     0.03000
H1240       H  0.34252383  0.79411131  0.54229951     0.06500
H1241       H  0.39819527  0.89161420  0.62457014     0.05500
H1242       H  0.38048208  0.89649534  0.58618510    -0.00300
H1243       H  0.38678861  0.86898533  0.58432140     0.01200
H1244       H  0.27357829  0.82222533  0.69872287     0.04800
H1245       H  0.28132680  0.79558781  0.69690889     0.06800
H1246       H  0.26345189  0.79994562  0.65829651     0.07700
C1247       C  0.35031406  0.86436391  0.12352887    -0.22000
C1248       C  0.33151199  0.84317684  0.10087889     0.10000
C1249       C  0.30946680  0.82092553  0.11843158     0.10400
C1250       C  0.30717015  0.82004417  0.15870743    -0.16900
C1251       C  0.32658625  0.84087568  0.18144570    -0.27300
C1252       C  0.34802891  0.86368097  0.16355683     0.18700
C1253       C  0.33598428  0.84465302  0.05889652     0.12700
C1254       C  0.28866160  0.79808988  0.09465048    -0.11700
H1255       H  0.29081587  0.80263956  0.17251247     0.13000
C1256       C  0.36874520  0.88782857  0.18564380    -0.22500
H1257       H  0.36701954  0.88154345  0.10981355     0.08600
C1258       C  0.32984795  0.86049791  0.03533585     0.05000
C1259       C  0.33565124  0.86225346  0.99594232    -0.19700
C1260       C  0.34735061  0.84842180  0.97953717    -0.12000
C1261       C  0.35420226  0.83313202  0.00357013     0.13700
C1262       C  0.34815051  0.83126833  0.04289233    -0.22400
C1263       C  0.31659269  0.87499005  0.05164817    -0.05500
H1264       H  0.33010245  0.87371553  0.97761206     0.15200
C1265       C  0.36863984  0.81924520  0.98929069    -0.15700
H1266       H  0.35338533  0.81963599  0.06140965     0.09500
H1267       H  0.36928939  0.90609713  0.17487340     0.07400
H1268       H  0.38878679  0.89012204  0.18134510     0.08600
H1269       H  0.36454041  0.88668026  0.21683752     0.07600
H1270       H  0.29814920  0.78874463  0.07796008     0.02500
H1271       H  0.27926365  0.80567643  0.07450369     0.03000
H1272       H  0.27264102  0.78236538  0.11284462     0.06500
H1273       H  0.31264339  0.88604022  0.02911143     0.05500
H1274       H  0.32967759  0.88966544  0.07371222    -0.00300
H1275       H  0.29716136  0.86032367  0.06502013     0.01200
H1276       H  0.38682789  0.82565863  0.00693129     0.04800
H1277       H  0.37548045  0.82408305  0.95912697     0.06800
H1278       H  0.35532627  0.79720179  0.99206917     0.07700
C1279       C  0.25979532  0.90794294  0.38758583    -0.22000
C1280       C  0.23259284  0.88956886  0.39314891     0.10000
C1281       C  0.22174954  0.86289322  0.38040305     0.10400
C1282       C  0.23882189  0.85490473  0.36379708    -0.16900
C1283       C  0.26651302  0.87305578  0.35988720    -0.27300
C1284       C  0.27693624  0.90020781  0.37124725     0.18700
C1285       C  0.21640497  0.89952464  0.41226815     0.12700
C1286       C  0.19233896  0.84292428  0.38485841    -0.11700
H1287       H  0.23064555  0.83421581  0.35504345     0.13000
C1288       C  0.30601448  0.92152031  0.36602513    -0.22500
H1289       H  0.26775302  0.92852181  0.39680739     0.08600
C1290       C  0.21634088  0.90209926  0.45266009     0.05000
C1291       C  0.20576648  0.91695747  0.46922988    -0.19700
C1292       C  0.19579392  0.92967745  0.44614306    -0.12000
C1293       C  0.19431914  0.92559424  0.40581420     0.13700
C1294       C  0.20473617  0.91064177  0.38944073    -0.22400
C1295       C  0.22845531  0.89009337  0.47805391    -0.05500
H1296       H  0.20677837  0.92000261  0.50006675     0.15200
C1297       C  0.18216169  0.93694550  0.37909923    -0.15700
H1298       H  0.20478662  0.90860218  0.35845606     0.09500
H1299       H  0.31884260  0.91791419  0.38572441     0.07400
H1300       H  0.30964217  0.94185234  0.37277219     0.08600
H1301       H  0.31220080  0.92167903  0.33576569     0.07600
H1302       H  0.18052512  0.84993137  0.36887471     0.02500
H1303       H  0.18670712  0.84078027  0.41569739     0.03000
H1304       H  0.18706352  0.82287781  0.37353578     0.06500
H1305       H  0.22674594  0.89388809  0.50894038     0.05500
H1306       H  0.25002121  0.89891295  0.47110689    -0.00300
H1307       H  0.21798024  0.86808401  0.47344812     0.01200
H1308       H  0.19772362  0.95133866  0.35902234     0.04800
H1309       H  0.17321073  0.94733458  0.39435308     0.06800
H1310       H  0.16593396  0.92041174  0.36214769     0.07700
C1311       C  0.21521504  0.64069888  0.35654843    -0.22000
C1312       C  0.21448150  0.65304033  0.32255915     0.10000
C1313       C  0.20176240  0.63726741  0.28991184     0.10400
C1314       C  0.19106757  0.60941562  0.29149289    -0.16900
C1315       C  0.19305705  0.59689614  0.32494025    -0.27300
C1316       C  0.20467938  0.61290589  0.35839869     0.18700
C1317       C  0.22974751  0.68269752  0.32099090     0.12700
C1318       C  0.19993340  0.64995414  0.25326966    -0.11700
H1319       H  0.18193094  0.59755929  0.26592526     0.13000
C1320       C  0.20640095  0.60133594  0.39629936    -0.22500
H1321       H  0.22496026  0.65311535  0.38146603     0.08600
C1322       C  0.21912594  0.69834848  0.33464239     0.05000
C1323       C  0.23545787  0.72645301  0.33509468    -0.19700
C1324       C  0.26226269  0.73898633  0.32307102    -0.12000
C1325       C  0.27272855  0.72321411  0.30892178     0.13700
C1326       C  0.25626631  0.69528585  0.30796431    -0.22400
C1327       C  0.19081413  0.68533361  0.34935525    -0.05500
H1328       H  0.22762285  0.73861432  0.34616037     0.15200
C1329       C  0.30112114  0.73507803  0.29453421    -0.15700
H1330       H  0.26434709  0.68314425  0.29764473     0.09500
H1331       H  0.18614730  0.58528335  0.40539349     0.07400
H1332       H  0.21445359  0.61671165  0.41943785     0.08600
H1333       H  0.22009315  0.59329966  0.39380109     0.07600
H1334       H  0.22033145  0.66436653  0.24250458     0.02500
H1335       H  0.18899700  0.66075709  0.25874840     0.03000
H1336       H  0.18911837  0.63477298  0.23046711     0.06500
H1337       H  0.18564174  0.70044138  0.35899339     0.05500
H1338       H  0.18826784  0.67225087  0.37416139    -0.00300
H1339       H  0.17668875  0.67304018  0.32626302     0.01200
H1340       H  0.31191029  0.72784116  0.31255863     0.04800
H1341       H  0.31260647  0.75727697  0.29489317     0.06800
H1342       H  0.30084663  0.72857120  0.26440805     0.07700
C1343       C  0.44383040  0.80862344  0.32780862    -0.22000
C1344       C  0.43165893  0.78068425  0.33067338     0.10000
C1345       C  0.40363152  0.76489098  0.33530777     0.10400
C1346       C  0.38840792  0.77740536  0.33698095    -0.16900
C1347       C  0.40042157  0.80531732  0.33367265    -0.27300
C1348       C  0.42858320  0.82122341  0.32938374     0.18700
C1349       C  0.44847648  0.76818011  0.32963947     0.12700
C1350       C  0.38966058  0.73475963  0.33749282    -0.11700
H1351       H  0.36682632  0.76522344  0.33990770     0.13000
C1352       C  0.44333876  0.85140470  0.32777130    -0.22500
H1353       H  0.46540711  0.82069195  0.32478856     0.08600
C1354       C  0.45927893  0.76497091  0.29501365     0.05000
C1355       C  0.47296798  0.75076027  0.29522458    -0.19700
C1356       C  0.47581269  0.73944155  0.32920454    -0.12000
C1357       C  0.46616325  0.74399298  0.36426702     0.13700
C1358       C  0.45246609  0.75811425  0.36386105    -0.22400
C1359       C  0.45537819  0.77554027  0.25765919    -0.05500
H1360       H  0.48036913  0.74739291  0.26840578     0.15200
C1361       C  0.47026084  0.73482340  0.40280505    -0.15700
H1362       H  0.44454001  0.76107927  0.39049550     0.09500
H1363       H  0.45358560  0.85824816  0.29958548     0.07400
H1364       H  0.45862529  0.85974260  0.35089699     0.08600
H1365       H  0.43014347  0.85983468  0.33196575     0.07600
H1366       H  0.39659439  0.72867898  0.36309704     0.02500
H1367       H  0.39409520  0.72677553  0.31121599     0.03000
H1368       H  0.36758443  0.72549437  0.33978600     0.06500
H1369       H  0.46455226  0.77074536  0.23314205     0.05500
H1370       H  0.46481985  0.79765472  0.25931901    -0.00300
H1371       H  0.43365130  0.76646350  0.25179462     0.01200
H1372       H  0.47947397  0.75212084  0.42292101     0.04800
H1373       H  0.48383500  0.72667303  0.40173031     0.06800
H1374       H  0.45059104  0.71933548  0.41467549     0.07700
C1375       C  0.57476831  0.59881580  0.75304704    -0.22000
C1376       C  0.55813051  0.57165847  0.74405929     0.10000
C1377       C  0.53097769  0.55827460  0.75515272     0.10400
C1378       C  0.52079975  0.57266450  0.77404477    -0.16900
C1379       C  0.53729561  0.60002973  0.78256907    -0.27300
C1380       C  0.56471226  0.61333905  0.77177802     0.18700
C1381       C  0.56991845  0.55742165  0.72430920     0.12700
C1382       C  0.51276811  0.52891648  0.74664062    -0.11700
H1383       H  0.49975486  0.56263777  0.78166735     0.13000
C1384       C  0.58375530  0.64300659  0.77736426    -0.22500
H1385       H  0.59568101  0.60890848  0.74458525     0.08600
C1386       C  0.57235067  0.55742721  0.68394361     0.05000
C1387       C  0.58473636  0.54438939  0.66700904    -0.19700
C1388       C  0.59448229  0.53120484  0.68966583    -0.12000
C1389       C  0.59191504  0.53133823  0.73031671     0.13700
C1390       C  0.57960920  0.54439661  0.74691938    -0.22400
C1391       C  0.56205401  0.57135637  0.65895261    -0.05500
H1392       H  0.58696859  0.54462506  0.63606194     0.15200
C1393       C  0.60324552  0.51901359  0.75682589    -0.15700
H1394       H  0.57784412  0.54483116  0.77789834     0.09500
H1395       H  0.59214322  0.65243439  0.74910988     0.07400
H1396       H  0.60047629  0.64612421  0.79628502     0.08600
H1397       H  0.57438070  0.65375234  0.79011725     0.07600
H1398       H  0.52044586  0.51710722  0.76102993     0.02500
H1399       H  0.51198151  0.52540597  0.71517638     0.03000
H1400       H  0.49205767  0.52156046  0.75704064     0.06500
H1401       H  0.56539699  0.56935579  0.62797954     0.05500
H1402       H  0.57250253  0.59302387  0.66622189    -0.00300
H1403       H  0.54021250  0.56249690  0.66368485     0.01200
H1404       H  0.62496457  0.52771047  0.75106846     0.04800
H1405       H  0.59253294  0.49695979  0.75274553     0.06800
H1406       H  0.60100157  0.52280139  0.78753106     0.07700
C1407       C  0.76877223  0.68067939  0.53541850    -0.22000
C1408       C  0.77401650  0.67965915  0.57442542     0.10000
C1409       C  0.79065450  0.70349863  0.59464524     0.10400
C1410       C  0.80102217  0.72806410  0.57560464    -0.16900
C1411       C  0.79498476  0.72947109  0.53675460    -0.27300
C1412       C  0.77890115  0.70526049  0.51624698     0.18700
C1413       C  0.75965139  0.65352578  0.59416786     0.12700
C1414       C  0.79708743  0.70298651  0.63643519    -0.11700
H1415       H  0.81328750  0.74636692  0.59174717     0.13000
C1416       C  0.77226801  0.70490657  0.47435858    -0.22500
H1417       H  0.75590289  0.66208537  0.52027236     0.08600
C1418       C  0.73416208  0.64446770  0.61030947     0.05000
C1419       C  0.71979150  0.61854156  0.62528526    -0.19700
C1420       C  0.72997695  0.60116970  0.62381528    -0.12000
C1421       C  0.75589857  0.61049066  0.60836537     0.13700
C1422       C  0.77055991  0.63680573  0.59417585    -0.22400
C1423       C  0.72166808  0.66178711  0.61036451    -0.05500
H1424       H  0.69988306  0.61133912  0.63688704     0.15200
C1425       C  0.76811360  0.59306128  0.60384181    -0.15700
H1426       H  0.79011875  0.64392086  0.58142092     0.09500
H1427       H  0.76094684  0.68416300  0.46274663     0.07400
H1428       H  0.79100044  0.71613801  0.45738070     0.08600
H1429       H  0.75956797  0.71395161  0.47044063     0.07600
H1430       H  0.80731879  0.69134879  0.63988624     0.02500
H1431       H  0.77840464  0.69347984  0.65376098     0.03000
H1432       H  0.81042948  0.72348617  0.64799046     0.06500
H1433       H  0.70147868  0.65145173  0.62382820     0.05500
H1434       H  0.71952869  0.66691453  0.58041207    -0.00300
H1435       H  0.73443910  0.68052847  0.62668368     0.01200
H1436       H  0.77281714  0.59228666  0.57306507     0.04800
H1437       H  0.75489203  0.57217235  0.61340325     0.06800
H1438       H  0.78697743  0.60178191  0.62059342     0.07700
C1439       C  0.65394279  0.48413693  0.85882266    -0.22000
C1440       C  0.66931663  0.50923296  0.87629651     0.10000
C1441       C  0.68489278  0.53208542  0.85342719     0.10400
C1442       C  0.68426039  0.52932568  0.81330656    -0.16900
C1443       C  0.66822126  0.50428772  0.79553785    -0.27300
C1444       C  0.65295963  0.48130577  0.81876639     0.18700
C1445       C  0.66922164  0.51077114  0.91872942     0.12700
C1446       C  0.70167172  0.55943045  0.87126823    -0.11700
H1447       H  0.69586205  0.54695551  0.79569319     0.13000
C1448       C  0.63604121  0.45359789  0.80193394    -0.22500
H1449       H  0.64249927  0.46665577  0.87678240     0.08600
C1450       C  0.64659761  0.50719557  0.93933718     0.05000
C1451       C  0.64705000  0.50727434  0.97967624    -0.19700
C1452       C  0.66951597  0.51062107  0.99959933    -0.12000
C1453       C  0.69252199  0.51524786  0.97886698     0.13700
C1454       C  0.69194340  0.51495587  0.93865522    -0.22400
C1455       C  0.62212659  0.50350597  0.91879610    -0.05500
H1456       H  0.62963677  0.50416164  0.99571907     0.15200
C1457       C  0.71804758  0.52139727  0.99893427    -0.15700
H1458       H  0.70924748  0.51781003  0.92257606     0.09500
H1459       H  0.61898499  0.45226953  0.78568285     0.07400
H1460       H  0.62742581  0.43797901  0.82457085     0.08600
H1461       H  0.64844198  0.44890884  0.78271364     0.07600
H1462       H  0.71732727  0.55975092  0.88987000     0.02500
H1463       H  0.68876354  0.56441358  0.88880254     0.03000
H1464       H  0.71189097  0.57523472  0.84915447     0.06500
H1465       H  0.60660690  0.50180034  0.93927707     0.05500
H1466       H  0.61314606  0.48494515  0.90117293    -0.00300
H1467       H  0.62776474  0.52095375  0.89985097     0.01200
H1468       H  0.71485109  0.50390620  0.01598266     0.04800
H1469       H  0.72471076  0.53902153  0.01818089     0.06800
H1470       H  0.73447392  0.52621220  0.97817197     0.07700
C1471       C  0.65246990  0.51837506  0.35269903    -0.22000
C1472       C  0.66874150  0.51319907  0.37628362     0.10000
C1473       C  0.68975418  0.51078850  0.35998297     0.10400
C1474       C  0.69371132  0.51314666  0.31997212    -0.16900
C1475       C  0.67692654  0.51764161  0.29621624    -0.27300
C1476       C  0.65640640  0.52089860  0.31292301     0.18700
C1477       C  0.66339990  0.51065300  0.41807529     0.12700
C1478       C  0.70761721  0.50530290  0.38479298    -0.11700
H1479       H  0.70918701  0.51039039  0.30708183     0.13000
C1480       C  0.63844349  0.52738043  0.28982776    -0.22500
H1481       H  0.63659822  0.52054914  0.36549743     0.08600
C1482       C  0.67403571  0.53342616  0.44208740     0.05000
C1483       C  0.66860625  0.53009091  0.48162250    -0.19700
C1484       C  0.65290684  0.50447228  0.49760139    -0.12000
C1485       C  0.64116076  0.48174343  0.47314323     0.13700
C1486       C  0.64673021  0.48514200  0.43364380    -0.22400
C1487       C  0.69164523  0.56113958  0.42604614    -0.05500
H1488       H  0.67771642  0.54747219  0.50039461     0.15200
C1489       C  0.62231443  0.45377604  0.48756042    -0.15700
H1490       H  0.63801436  0.46777319  0.41482422     0.09500
H1491       H  0.63959835  0.54579020  0.30151793     0.07400
H1492       H  0.61739594  0.51057026  0.29194222     0.08600
H1493       H  0.64409147  0.53121420  0.25909901     0.07600
H1494       H  0.69543253  0.48600972  0.40013015     0.02500
H1495       H  0.71800545  0.52167055  0.40616463     0.03000
H1496       H  0.72304429  0.50397395  0.36752343     0.06500
H1497       H  0.69858675  0.57673355  0.44881291     0.05500
H1498       H  0.68036664  0.56549018  0.40442064    -0.00300
H1499       H  0.70955074  0.56247877  0.41215089     0.01200
H1500       H  0.60307039  0.44509318  0.47171493     0.04800
H1501       H  0.61754854  0.45318676  0.51853353     0.06800
H1502       H  0.63122034  0.44102327  0.48252371     0.07700
C1503       C  0.59667126  0.57909580  0.18478487    -0.22000
C1504       C  0.58158799  0.56790245  0.21824389     0.10000
C1505       C  0.57935624  0.54438730  0.23342507     0.10400
C1506       C  0.59266892  0.53279831  0.21521490    -0.16900
C1507       C  0.60856955  0.54418984  0.18206797    -0.27300
C1508       C  0.61029450  0.56770888  0.16651713     0.18700
C1509       C  0.56826652  0.58115184  0.23700675     0.12700
C1510       C  0.56322790  0.53175754  0.26927710    -0.11700
H1511       H  0.59105428  0.51499645  0.22775452     0.13000
C1512       C  0.62641760  0.58124506  0.13099491    -0.22500
H1513       H  0.59806305  0.59703622  0.17330340     0.08600
C1514       C  0.58187950  0.60230000  0.26348961     0.05000
C1515       C  0.56850411  0.61439173  0.28015628    -0.19700
C1516       C  0.54181019  0.60616864  0.27061544    -0.12000
C1517       C  0.52811628  0.58454059  0.24419210     0.13700
C1518       C  0.54154974  0.57232388  0.22805690    -0.22400
C1519       C  0.61062910  0.61224519  0.27389121    -0.05500
H1520       H  0.57934105  0.63094831  0.29995462     0.15200
C1521       C  0.49937575  0.57388643  0.23270463    -0.15700
H1522       H  0.53123848  0.55588649  0.20780349     0.09500
H1523       H  0.64799405  0.58897729  0.13636175     0.07400
H1524       H  0.62444435  0.59858752  0.12243790     0.08600
H1525       H  0.61930612  0.56685131  0.10659872     0.07600
H1526       H  0.54202030  0.52589246  0.26444673     0.02500
H1527       H  0.57140762  0.54626326  0.29348484     0.03000
H1528       H  0.56372659  0.51354883  0.27763020     0.06500
H1529       H  0.61834927  0.62891244  0.29508947     0.05500
H1530       H  0.62336257  0.61967218  0.24776440    -0.00300
H1531       H  0.61239676  0.59568896  0.28659082     0.01200
H1532       H  0.49764777  0.58923054  0.21608331     0.04800
H1533       H  0.48648090  0.56814265  0.25866404     0.06800
H1534       H  0.49165977  0.55584111  0.21406077     0.07700
C1535       C  0.76149618  0.65630423  0.11221267    -0.22000
C1536       C  0.77436303  0.65829503  0.07711721     0.10000
C1537       C  0.77498928  0.63580572  0.06283389     0.10400
C1538       C  0.76133099  0.61135203  0.08283350    -0.16900
C1539       C  0.74708901  0.60892984  0.11678894    -0.27300
C1540       C  0.74772901  0.63187957  0.13212049     0.18700
C1541       C  0.78433624  0.68317817  0.05407531     0.12700
C1542       C  0.78909313  0.63738429  0.02568770    -0.11700
H1543       H  0.76044936  0.59365006  0.07073339     0.13000
C1544       C  0.73310693  0.63097990  0.16846303    -0.22500
H1545       H  0.76108394  0.67362690  0.12320111     0.08600
C1546       C  0.76677261  0.68681022  0.03030070     0.05000
C1547       C  0.77591277  0.71158498  0.01219949    -0.19700
C1548       C  0.80221242  0.73293847  0.01726879    -0.12000
C1549       C  0.82015292  0.72899120  0.03997115     0.13700
C1550       C  0.81099073  0.70404838  0.05787572    -0.22400
C1551       C  0.73807596  0.66479059  0.02506664    -0.05500
H1552       H  0.76206431  0.71476009  0.99540576     0.15200
C1553       C  0.84849683  0.75099564  0.04793762    -0.15700
H1554       H  0.82443202  0.70123056  0.07619463     0.09500
H1555       H  0.71767695  0.63631664  0.16193796     0.07400
H1556       H  0.74754893  0.64567713  0.18943703     0.08600
H1557       H  0.72308235  0.61098448  0.18226927     0.07600
H1558       H  0.81063771  0.65287195  0.02815427     0.02500
H1559       H  0.78009512  0.64281204  0.00186504     0.03000
H1560       H  0.78756783  0.61798342  0.01839694     0.06500
H1561       H  0.72707829  0.67091066  0.00547571     0.05500
H1562       H  0.72759399  0.65952086  0.05321711    -0.00300
H1563       H  0.73740057  0.64679466  0.01263862     0.01200
H1564       H  0.85114079  0.75500000  0.07931731     0.04800
H1565       H  0.85399431  0.77005999  0.03336012     0.06800
H1566       H  0.86260045  0.74457361  0.03806794     0.07700
C1567       C  0.54749014  0.35839183  0.64949278    -0.22000
C1568       C  0.55868355  0.34208910  0.64553685     0.10000
C1569       C  0.58645008  0.35370975  0.63953871     0.10400
C1570       C  0.60257613  0.38163192  0.63809041    -0.16900
C1571       C  0.59156236  0.39815486  0.64256730    -0.27300
C1572       C  0.56354661  0.38638217  0.64767603     0.18700
C1573       C  0.54107164  0.31276512  0.64703877     0.12700
C1574       C  0.59905360  0.33663053  0.63509423    -0.11700
H1575       H  0.62402841  0.39065201  0.63425650     0.13000
C1576       C  0.54967968  0.40239256  0.64978186    -0.22500
H1577       H  0.52603744  0.34917739  0.65349803     0.08600
C1578       C  0.53543607  0.29874632  0.68202959     0.05000
C1579       C  0.52178273  0.27066600  0.68142377    -0.19700
C1580       C  0.51415438  0.25656430  0.64652150    -0.12000
C1581       C  0.51800474  0.27067053  0.61172592     0.13700
C1582       C  0.53164048  0.29869388  0.61245360    -0.22400
C1583       C  0.54493592  0.31347439  0.71968808    -0.05500
H1584       H  0.51874536  0.25980712  0.70800596     0.15200
C1585       C  0.50813323  0.25688025  0.57342135    -0.15700
H1586       H  0.53566348  0.30968131  0.58575441     0.09500
H1587       H  0.54020763  0.39971526  0.67845544     0.07400
H1588       H  0.53384865  0.39507356  0.62746050     0.08600
H1589       H  0.56322113  0.42406380  0.64458476     0.07600
H1590       H  0.59043117  0.32326039  0.60975165     0.02500
H1591       H  0.59519146  0.32423185  0.66119792     0.03000
H1592       H  0.62107742  0.34900003  0.63094138     0.06500
H1593       H  0.53899844  0.29944581  0.74431560     0.05500
H1594       H  0.53612335  0.32637111  0.72408308    -0.00300
H1595       H  0.56711591  0.32619725  0.71954209     0.01200
H1596       H  0.49535856  0.26372980  0.55987139     0.04800
H1597       H  0.49581482  0.23477590  0.57582493     0.06800
H1598       H  0.52547232  0.26211865  0.55428071     0.07700
C1599       C  0.43507667  0.01621799  0.70030276    -0.22000
C1600       C  0.45001566  0.01507298  0.73099343     0.10000
C1601       C  0.47554555  0.03719248  0.73879955     0.10400
C1602       C  0.48512850  0.06045664  0.71672262    -0.16900
C1603       C  0.46963435  0.06255765  0.68726859    -0.27300
C1604       C  0.44437056  0.03966534  0.67840641     0.18700
C1605       C  0.43815379  0.99073114  0.75525139     0.12700
C1606       C  0.49227612  0.03665354  0.77141048    -0.11700
H1607       H  0.50454406  0.07750593  0.72377914     0.13000
C1608       C  0.42655440  0.03966731  0.64698439    -0.22500
H1609       H  0.41561387  0.99886124  0.69429342     0.08600
C1610       C  0.41797365  0.98543888  0.78247953     0.05000
C1611       C  0.40593024  0.96115778  0.80277941    -0.19700
C1612       C  0.41386639  0.94218494  0.79682159    -0.12000
C1613       C  0.43606005  0.94894257  0.77229214     0.13700
C1614       C  0.44730272  0.97272522  0.75099983    -0.22400
C1615       C  0.40892397  0.00526152  0.78971081    -0.05500
H1616       H  0.38926075  0.95641124  0.82179844     0.15200
C1617       C  0.44879342  0.93195225  0.76816442    -0.15700
H1618       H  0.46345671  0.97733488  0.73096758     0.09500
H1619       H  0.42031190  0.05444164  0.65367438     0.07400
H1620       H  0.40802221  0.01979265  0.64383018     0.08600
H1621       H  0.43733145  0.04455741  0.61906749     0.07600
H1622       H  0.49708681  0.02064435  0.76637736     0.02500
H1623       H  0.48109804  0.03275538  0.79885477     0.03000
H1624       H  0.51146572  0.05597292  0.77428446     0.06500
H1625       H  0.39333847  0.99823491  0.81247602     0.05500
H1626       H  0.40039640  0.00832199  0.76307553    -0.00300
H1627       H  0.42624834  0.02472206  0.79908378     0.01200
H1628       H  0.44492934  0.92301481  0.73891756     0.04800
H1629       H  0.44171403  0.91588656  0.78994044     0.06800
H1630       H  0.47077466  0.94470495  0.77229725     0.07700
C1631       C  0.36179044  0.13312858  0.59063952    -0.22000
C1632       C  0.34428266  0.10546567  0.58698613     0.10000
C1633       C  0.35193907  0.08751831  0.60078061     0.10400
C1634       C  0.37712211  0.09768782  0.61785843    -0.16900
C1635       C  0.39504014  0.12541491  0.62101040    -0.27300
C1636       C  0.38732227  0.14344440  0.60691972     0.18700
C1637       C  0.31819816  0.09540671  0.56773576     0.12700
C1638       C  0.33378179  0.05762881  0.59659513    -0.11700
H1639       H  0.38316519  0.08393153  0.62791942     0.13000
C1640       C  0.40573757  0.17345033  0.60611736    -0.22500
H1641       H  0.35581624  0.14674869  0.57955615     0.08600
C1642       C  0.29482790  0.08803163  0.58907439     0.05000
C1643       C  0.27003268  0.07527453  0.57038466    -0.19700
C1644       C  0.26792141  0.06940764  0.53078527    -0.12000
C1645       C  0.29168995  0.07824814  0.50903996     0.13700
C1646       C  0.31656089  0.09122498  0.52791275    -0.22400
C1647       C  0.29603358  0.09308233  0.63173221    -0.05500
H1648       H  0.25204437  0.06878706  0.58736544     0.15200
C1649       C  0.29120656  0.07428527  0.46615852    -0.15700
H1650       H  0.33479821  0.09731323  0.51179242     0.09500
H1651       H  0.39698664  0.18311473  0.62374804     0.07400
H1652       H  0.40788089  0.18064354  0.57606247     0.08600
H1653       H  0.42612834  0.18025993  0.61681968     0.07600
H1654       H  0.32957946  0.05227549  0.56571600     0.02500
H1655       H  0.31460099  0.05101485  0.61190270     0.03000
H1656       H  0.34295810  0.04648344  0.60867408     0.06500
H1657       H  0.27584553  0.08603946  0.64409282     0.05500
H1658       H  0.30869624  0.11488982  0.63750842    -0.00300
H1659       H  0.30474265  0.08237907  0.64658327     0.01200
H1660       H  0.28006417  0.08286396  0.45219895     0.04800
H1661       H  0.28165019  0.05265417  0.45914550     0.06800
H1662       H  0.31172874  0.08437454  0.45379456     0.07700
C1663       C  0.52004188  0.17252065  0.93947618    -0.22000
C1664       C  0.49550540  0.15563431  0.92151502     0.10000
C1665       C  0.47342401  0.13700878  0.94352449     0.10400
C1666       C  0.47600875  0.13659339  0.98350657    -0.16900
C1667       C  0.50029925  0.15419526  0.00196322    -0.27300
C1668       C  0.52296675  0.17165568  0.97933369     0.18700
C1669       C  0.49368764  0.15688915  0.87931565     0.12700
C1670       C  0.44699650  0.11799681  0.92483668    -0.11700
H1671       H  0.45863252  0.12312203  0.00053465     0.13000
C1672       C  0.55069561  0.18898954  0.99569564    -0.22500
H1673       H  0.53717150  0.18616156  0.92212734     0.08600
C1674       C  0.48824857  0.17541396  0.86145753     0.05000
C1675       C  0.48674838  0.17565701  0.82116213    -0.19700
C1676       C  0.49050268  0.15768872  0.79861015    -0.12000
C1677       C  0.49478333  0.13833018  0.81693978     0.13700
C1678       C  0.49693636  0.13867044  0.85696354    -0.22400
C1679       C  0.48422402  0.19494320  0.88498799    -0.05500
H1680       H  0.48337077  0.19035718  0.80721337     0.15200
C1681       C  0.49619376  0.11630888  0.79563474    -0.15700
H1682       H  0.50059515  0.12416804  0.87099844     0.09500
H1683       H  0.55668727  0.21043752  0.99341062     0.07400
H1684       H  0.56516058  0.18568547  0.97911400     0.08600
H1685       H  0.55242994  0.18427428  0.02593694     0.07600
H1686       H  0.44960126  0.10490743  0.90404646     0.02500
H1687       H  0.43941382  0.12952107  0.90943003     0.03000
H1688       H  0.43168538  0.10494375  0.94625930     0.06500
H1689       H  0.48003113  0.20798399  0.86659983     0.05500
H1690       H  0.50253248  0.20795492  0.90199135    -0.00300
H1691       H  0.46702981  0.18383124  0.90486408     0.01200
H1692       H  0.51675430  0.11958089  0.79778164     0.04800
H1693       H  0.49056154  0.11471329  0.76500064     0.06800
H1694       H  0.48193655  0.09665519  0.80873720     0.07700
C1695       C  0.48807601  0.18093007  0.36170016    -0.22000
C1696       C  0.48298072  0.15681466  0.37851654     0.10000
C1697       C  0.47686771  0.13455722  0.35504627     0.10400
C1698       C  0.47704458  0.13723976  0.31509589    -0.16900
C1699       C  0.48314567  0.16161860  0.29806803    -0.27300
C1700       C  0.48849148  0.18374224  0.32161436     0.18700
C1701       C  0.48578777  0.15566955  0.42056413     0.12700
C1702       C  0.47110651  0.10828560  0.37209329    -0.11700
H1703       H  0.47310525  0.12037986  0.29689604     0.13000
C1704       C  0.49616358  0.21088217  0.30572473    -0.22500
H1705       H  0.49276607  0.19797139  0.37997683     0.08600
C1706       C  0.51123536  0.16725090  0.43793359     0.05000
C1707       C  0.51297755  0.16513214  0.47778535    -0.19700
C1708       C  0.48987917  0.15172910  0.50066488    -0.12000
C1709       C  0.46430590  0.14042989  0.48315958     0.13700
C1710       C  0.46268330  0.14224003  0.44320706    -0.22400
C1711       C  0.53652595  0.18166716  0.41438823    -0.05500
H1712       H  0.53250409  0.17420208  0.49127254     0.15200
C1713       C  0.43830716  0.12768014  0.50536545    -0.15700
H1714       H  0.44321058  0.13360498  0.42963761     0.09500
H1715       H  0.51628105  0.22604611  0.31659767     0.07400
H1716       H  0.48140953  0.21649369  0.31538922     0.08600
H1717       H  0.49700827  0.21165608  0.27395285     0.07600
H1718       H  0.45307047  0.10010186  0.39072546     0.02500
H1719       H  0.48846325  0.11136661  0.38946794     0.03000
H1720       H  0.46730528  0.09314325  0.34954233     0.06500
H1721       H  0.55470482  0.18906651  0.43244566     0.05500
H1722       H  0.53758992  0.19921787  0.39992825    -0.00300
H1723       H  0.53673579  0.16787041  0.39236681     0.01200
H1724       H  0.42719830  0.13805896  0.49839576     0.04800
H1725       H  0.44086807  0.12881099  0.53687192     0.06800
H1726       H  0.42585056  0.10627479  0.49697019     0.07700
C1727       C  0.57244786  0.30905462  0.15629395    -0.22000
C1728       C  0.55690978  0.32120046  0.15655318     0.10000
C1729       C  0.52872525  0.30509112  0.15774401     0.10400
C1730       C  0.51666512  0.27697958  0.15739241    -0.16900
C1731       C  0.53226712  0.26475691  0.15602457    -0.27300
C1732       C  0.56061899  0.28113794  0.15698569     0.18700
C1733       C  0.57100410  0.35089094  0.15541593     0.12700
C1734       C  0.51150984  0.31761275  0.15925767    -0.11700
H1735       H  0.49502156  0.26453507  0.15720246     0.13000
C1736       C  0.57922496  0.27017475  0.16025355    -0.22500
H1737       H  0.59410631  0.32155580  0.15619642     0.08600
C1738       C  0.58309160  0.36650120  0.18851867     0.05000
C1739       C  0.59864891  0.39450158  0.18525623    -0.19700
C1740       C  0.60290291  0.40724868  0.14951777    -0.12000
C1741       C  0.59004905  0.39158887  0.11652211     0.13700
C1742       C  0.57433239  0.36358395  0.11994629    -0.22400
C1743       C  0.57997714  0.35355550  0.22711320    -0.05500
H1744       H  0.60848234  0.40644990  0.21053879     0.15200
C1745       C  0.59198011  0.40360578  0.07749497    -0.15700
H1746       H  0.56494607  0.35148649  0.09459669     0.09500
H1747       H  0.59308259  0.28000683  0.18475713     0.07400
H1748       H  0.59122560  0.27455337  0.13350133     0.08600
H1749       H  0.56880259  0.24838181  0.16593132     0.07600
H1750       H  0.51511331  0.33009970  0.13335003     0.02500
H1751       H  0.51649461  0.33042055  0.18528841     0.03000
H1752       H  0.48986239  0.30220889  0.16038344     0.06500
H1753       H  0.59053511  0.36868186  0.25008416     0.05500
H1754       H  0.58846290  0.34017983  0.22612026    -0.00300
H1755       H  0.55843854  0.34160746  0.23483350     0.01200
H1756       H  0.60184639  0.39653431  0.05709286     0.04800
H1757       H  0.60325842  0.42579026  0.07769557     0.06800
H1758       H  0.57152399  0.39706419  0.06684693     0.07700
C1759       C  0.42548251  0.01482641  0.19137489    -0.22000
C1760       C  0.43848047  0.01145498  0.22286556     0.10000
C1761       C  0.46343688  0.03291874  0.23469178     0.10400
C1762       C  0.47436151  0.05759156  0.21576608    -0.16900
C1763       C  0.46089073  0.06180481  0.18535422    -0.27300
C1764       C  0.43620470  0.03968932  0.17250311     0.18700
C1765       C  0.42519569  0.98572406  0.24429329     0.12700
C1766       C  0.47816197  0.03010979  0.26826910    -0.11700
H1767       H  0.49334829  0.07398179  0.22588230     0.13000
C1768       C  0.42056443  0.04194126  0.13973903    -0.22500
H1769       H  0.40641468  0.99802348  0.18222702     0.08600
C1770       C  0.40390301  0.97928103  0.26998883     0.05000
C1771       C  0.39232384  0.95501901  0.29033674    -0.19700
C1772       C  0.40137532  0.93679066  0.28556619    -0.12000
C1773       C  0.42340592  0.94381466  0.26044425     0.13700
C1774       C  0.43487984  0.96812489  0.24018142    -0.22400
C1775       C  0.39344962  0.99808409  0.27604612    -0.05500
H1776       H  0.37547785  0.94992488  0.30914686     0.15200
C1777       C  0.43541243  0.92625100  0.25495906    -0.15700
H1778       H  0.45149837  0.97345923  0.22077351     0.09500
H1779       H  0.41426725  0.05658137  0.14707058     0.07400
H1780       H  0.40213504  0.02249753  0.13343298     0.08600
H1781       H  0.43301719  0.04831390  0.11328337     0.07600
H1782       H  0.48333200  0.01449518  0.26194186     0.02500
H1783       H  0.46536139  0.02436131  0.29435371     0.03000
H1784       H  0.49707059  0.04910612  0.27452496     0.06500
H1785       H  0.37708313  0.99026362  0.29767476     0.05500
H1786       H  0.38543350  0.00084906  0.24864783    -0.00300
H1787       H  0.40988563  0.01781261  0.28628067     0.01200
H1788       H  0.42114493  0.90748381  0.23975362     0.04800
H1789       H  0.44072859  0.92152164  0.28327477     0.06800
H1790       H  0.45394698  0.93625919  0.23730134     0.07700
C1791       C  0.37250325  0.13022954  0.05157076    -0.22000
C1792       C  0.34931269  0.11606563  0.07385643     0.10000
C1793       C  0.35158021  0.11494452  0.11413488     0.10400
C1794       C  0.37716297  0.12696644  0.13101955    -0.16900
C1795       C  0.40038335  0.13949887  0.10829717    -0.27300
C1796       C  0.39800891  0.14195257  0.06822428     0.18700
C1797       C  0.32339867  0.09929889  0.05384738     0.12700
C1798       C  0.32702454  0.09992831  0.13895154    -0.11700
H1799       H  0.37901166  0.12495983  0.16162591     0.13000
C1800       C  0.42198745  0.15624207  0.04201900    -0.22500
H1801       H  0.37070509  0.13108948  0.02068548     0.08600
C1802       C  0.30613039  0.10883654  0.04419152     0.05000
C1803       C  0.28146192  0.09139239  0.02627634    -0.19700
C1804       C  0.27392495  0.06474620  0.01746764    -0.12000
C1805       C  0.29232588  0.05599840  0.02473106     0.13700
C1806       C  0.31648898  0.07321018  0.04345460    -0.22400
C1807       C  0.31359028  0.13719916  0.05335026    -0.05500
H1808       H  0.26756712  0.09824471  0.02063044     0.15200
C1809       C  0.28757925  0.02891353  0.01245712    -0.15700
H1810       H  0.33023595  0.06626223  0.04980867     0.09500
H1811       H  0.42096796  0.17233749  0.02632846     0.07400
H1812       H  0.42190184  0.14182328  0.02082674     0.08600
H1813       H  0.44130646  0.16577078  0.05764128     0.07600
H1814       H  0.31562461  0.07852612  0.13017357     0.02500
H1815       H  0.31404872  0.10872979  0.13579096     0.03000
H1816       H  0.33228835  0.10087384  0.16979052     0.06500
H1817       H  0.29786120  0.14146711  0.04394398     0.05500
H1818       H  0.33254148  0.15135205  0.03841686    -0.00300
H1819       H  0.31638897  0.14073291  0.08477947     0.01200
H1820       H  0.30501495  0.03159630  0.99545501     0.04800
H1821       H  0.26977163  0.01769065  0.99388284     0.06800
H1822       H  0.28535055  0.01671861  0.03823602     0.07700
C1823       C  0.86575083  0.23026293  0.59511763    -0.22000
C1824       C  0.89320845  0.23945983  0.59677319     0.10000
C1825       C  0.91060345  0.26400503  0.61519520     0.10400
C1826       C  0.90014671  0.27906776  0.63100498    -0.16900
C1827       C  0.87278387  0.27050674  0.62814097    -0.27300
C1828       C  0.85528466  0.24565448  0.60991736     0.18700
C1829       C  0.90386474  0.22459357  0.57576756     0.12700
C1830       C  0.94037333  0.27489729  0.61665178    -0.11700
H1831       H  0.91360002  0.29821175  0.64439668     0.13000
C1832       C  0.82601275  0.23547498  0.60274311    -0.22500
H1833       H  0.85258978  0.21155872  0.58037457     0.08600
C1834       C  0.90937563  0.20649157  0.59451190     0.05000
C1835       C  0.92238620  0.19541217  0.57421633    -0.19700
C1836       C  0.93014793  0.20201626  0.53546953    -0.12000
C1837       C  0.92312546  0.21907979  0.51619408     0.13700
C1838       C  0.91003154  0.23008165  0.53668569    -0.22400
C1839       C  0.90177152  0.19908492  0.63599393    -0.05500
H1840       H  0.92740793  0.18227816  0.58934134     0.15200
C1841       C  0.92912065  0.22578252  0.47421564    -0.15700
H1842       H  0.90528492  0.24375391  0.52248383     0.09500
H1843       H  0.81368675  0.21607767  0.61773283     0.07400
H1844       H  0.82195493  0.23224001  0.57142122     0.08600
H1845       H  0.81935748  0.24935938  0.61226933     0.07600
H1846       H  0.94850103  0.27766929  0.58702580     0.02500
H1847       H  0.94459152  0.26078752  0.63219503     0.03000
H1848       H  0.95111044  0.29455716  0.63163040     0.06500
H1849       H  0.90747945  0.18454864  0.64622947     0.05500
H1850       H  0.87978403  0.18981988  0.63939047    -0.00300
H1851       H  0.91197171  0.21718689  0.65449003     0.01200
H1852       H  0.92031250  0.23765929  0.46355332     0.04800
H1853       H  0.92052114  0.20703625  0.45700888     0.06800
H1854       H  0.95105086  0.23795660  0.46947700     0.07700
C1855       C  0.78237748  0.42516588  0.68290098    -0.22000
C1856       C  0.78166075  0.43706624  0.64840271     0.10000
C1857       C  0.79420239  0.43428125  0.61539166     0.10400
C1858       C  0.80667904  0.41897792  0.61742793    -0.16900
C1859       C  0.80662146  0.40618656  0.65164599    -0.27300
C1860       C  0.79410505  0.40921345  0.68486496     0.18700
C1861       C  0.76467695  0.44927620  0.64637777     0.12700
C1862       C  0.79367542  0.44679424  0.57783426    -0.11700
H1863       H  0.81607453  0.41653596  0.59198363     0.13000
C1864       C  0.79072783  0.39450968  0.72207198    -0.22500
H1865       H  0.77221663  0.42699451  0.70792501     0.08600
C1866       C  0.73680631  0.43306435  0.64103659     0.05000
C1867       C  0.72118248  0.44508900  0.63905668    -0.19700
C1868       C  0.73265703  0.47299297  0.64235474    -0.12000
C1869       C  0.76077360  0.48933141  0.64715360     0.13700
C1870       C  0.77637554  0.47713814  0.64952668    -0.22400
C1871       C  0.72353668  0.40302805  0.63734682    -0.05500
H1872       H  0.69969123  0.43249418  0.63551088     0.15200
C1873       C  0.77525465  0.51952621  0.64822584    -0.15700
H1874       H  0.79787705  0.48946817  0.65322552     0.09500
H1875       H  0.76914886  0.38298446  0.72986074     0.07400
H1876       H  0.80179938  0.40919558  0.74529406     0.08600
H1877       H  0.79756201  0.37987611  0.72080348     0.07600
H1878       H  0.80359934  0.46886667  0.58132582     0.02500
H1879       H  0.77263159  0.43875907  0.56862333     0.03000
H1880       H  0.80426631  0.44252840  0.55474752     0.06500
H1881       H  0.70160087  0.39341025  0.63281872     0.05500
H1882       H  0.72678059  0.39455467  0.66392967    -0.00300
H1883       H  0.73214709  0.39788769  0.61250143     0.01200
H1884       H  0.78477663  0.52677132  0.67677053     0.04800
H1885       H  0.76215033  0.52781157  0.64245041     0.06800
H1886       H  0.79111240  0.52770015  0.62582788     0.07700
C1887       C  0.64018438  0.19942922  0.66131974    -0.22000
C1888       C  0.65567059  0.22552322  0.64708863     0.10000
C1889       C  0.64287538  0.23884952  0.63260950     0.10400
C1890       C  0.61483710  0.22561082  0.63236308    -0.16900
C1891       C  0.59909638  0.19953903  0.64706152    -0.27300
C1892       C  0.61208919  0.18635894  0.66215248     0.18700
C1893       C  0.68528364  0.23866322  0.64763292     0.12700
C1894       C  0.65873950  0.26733651  0.61840066    -0.11700
H1895       H  0.60517150  0.23604181  0.62136835     0.13000
C1896       C  0.59679652  0.15850529  0.67878104    -0.22500
H1897       H  0.65023126  0.18932696  0.67213966     0.08600
C1898       C  0.69996984  0.24724357  0.68223856     0.05000
C1899       C  0.72807568  0.26150561  0.68077159    -0.19700
C1900       C  0.74176203  0.26805297  0.64551358    -0.12000
C1901       C  0.72698585  0.25876472  0.61093839     0.13700
C1902       C  0.69893842  0.24373862  0.61256938    -0.22400
C1903       C  0.68608564  0.24244902  0.72054587    -0.05500
H1904       H  0.73941591  0.26878226  0.70721473     0.15200
C1905       C  0.74056555  0.26446993  0.57224429    -0.15700
H1906       H  0.68748217  0.23664785  0.58620350     0.09500
H1907       H  0.58595237  0.15851954  0.70514256     0.07400
H1908       H  0.61030797  0.15104797  0.68713549     0.08600
H1909       H  0.58241989  0.14436350  0.65729257     0.07600
H1910       H  0.67087901  0.26853852  0.59298050     0.02500
H1911       H  0.67218643  0.28052089  0.64151516     0.03000
H1912       H  0.64551756  0.27508101  0.60975389     0.06500
H1913       H  0.70063973  0.25145982  0.74450588     0.05500
H1914       H  0.67355638  0.22062223  0.72602801    -0.00300
H1915       H  0.67321436  0.25150748  0.72071837     0.01200
H1916       H  0.72594232  0.25410850  0.54870579     0.04800
H1917       H  0.75515125  0.25746695  0.57176971     0.06800
H1918       H  0.75104178  0.28627069  0.56608919     0.07700
C1919       C  0.03094340  0.47980772  0.75875515    -0.22000
C1920       C  0.01407417  0.45201451  0.75547133     0.10000
C1921       C  0.02085664  0.43474355  0.77413803     0.10400
C1922       C  0.04518941  0.44564477  0.79394744    -0.16900
C1923       C  0.06298518  0.47345571  0.79541854    -0.27300
C1924       C  0.05517562  0.49081144  0.77902775     0.18700
C1925       C  0.98898580  0.44105529  0.73315429     0.12700
C1926       C  0.00263231  0.40475505  0.77244267    -0.11700
H1927       H  0.05101048  0.43226436  0.80638668     0.13000
C1928       C  0.07156278  0.52089116  0.78285333    -0.22500
H1929       H  0.02515867  0.49297486  0.74542430     0.08600
C1930       C  0.96531609  0.43713125  0.75039081     0.05000
C1931       C  0.94115051  0.42307898  0.73027120    -0.19700
C1932       C  0.93984373  0.41238982  0.69327490    -0.12000
C1933       C  0.96408551  0.41782772  0.67517115     0.13700
C1934       C  0.98835194  0.43219074  0.69542830    -0.22400
C1935       C  0.96543254  0.44691362  0.79062544    -0.05500
H1936       H  0.92297751  0.41939574  0.74456152     0.15200
C1937       C  0.96479539  0.40858111  0.63488514    -0.15700
H1938       H  0.00682866  0.43562484  0.68240629     0.09500
H1939       H  0.05883524  0.52838909  0.79493789     0.07400
H1940       H  0.07894028  0.53001742  0.75414510     0.08600
H1941       H  0.08882939  0.52775212  0.80250977     0.07600
H1942       H  0.99989754  0.39781008  0.74214460     0.02500
H1943       H  0.98283240  0.39913421  0.78499970     0.03000
H1944       H  0.01091162  0.39417505  0.78871869     0.06500
H1945       H  0.94509985  0.44194184  0.80003659     0.05500
H1946       H  0.97872873  0.46902147  0.79191334    -0.00300
H1947       H  0.97282856  0.43747569  0.81102430     0.01200
H1948       H  0.98564793  0.41635066  0.62474200     0.04800
H1949       H  0.95510895  0.41594042  0.61486729     0.06800
H1950       H  0.95441173  0.38638888  0.63375461     0.07700
C1951       C  0.84942833  0.31898741  0.86271772    -0.22000
C1952       C  0.83765109  0.33131782  0.88304495     0.10000
C1953       C  0.82481571  0.34263299  0.86271862     0.10400
C1954       C  0.82438587  0.34169367  0.82246578    -0.16900
C1955       C  0.83617034  0.32940759  0.80192723    -0.27300
C1956       C  0.84875431  0.31775704  0.82235477     0.18700
C1957       C  0.83875832  0.33207545  0.92563611     0.12700
C1958       C  0.81129481  0.35543892  0.88347076    -0.11700
H1959       H  0.81478196  0.35065932  0.80685617     0.13000
C1960       C  0.86241807  0.30500236  0.80188048    -0.22500
H1961       H  0.85936514  0.31047380  0.87858011     0.08600
C1962       C  0.82234611  0.30905499  0.94775504     0.05000
C1963       C  0.82281719  0.31116408  0.98794708    -0.19700
C1964       C  0.83950416  0.33567158  0.00657014    -0.12000
C1965       C  0.85615175  0.35870539  0.98437971     0.13700
C1966       C  0.85567939  0.35651891  0.94417228    -0.22400
C1967       C  0.80408786  0.28236706  0.92897837    -0.05500
H1968       H  0.81029842  0.29346258  0.00503881     0.15200
C1969       C  0.87380355  0.38604735  0.00181393    -0.15700
H1970       H  0.86823277  0.37419286  0.92703136     0.09500
H1971       H  0.84751476  0.28729995  0.78524581     0.07400
H1972       H  0.87224997  0.29806535  0.82234187     0.08600
H1973       H  0.87804128  0.31973250  0.78217615     0.07600
H1974       H  0.82622286  0.37296205  0.90037715     0.02500
H1975       H  0.79566799  0.34065200  0.90309012     0.03000
H1976       H  0.80154782  0.36257857  0.86318111     0.06500
H1977       H  0.79221384  0.26658429  0.95050242     0.05500
H1978       H  0.81610304  0.27583878  0.91221068    -0.00300
H1979       H  0.78995483  0.28408350  0.90948099     0.01200
H1980       H  0.89506224  0.39315745  0.99474300     0.04800
H1981       H  0.87181768  0.38640468  0.03341967     0.06800
H1982       H  0.86836955  0.40033763  0.98970442     0.07700
C1983       C  0.87317724  0.34564553  0.35992761    -0.22000
C1984       C  0.85255358  0.32663813  0.38312664     0.10000
C1985       C  0.83017811  0.30442343  0.36603555     0.10400
C1986       C  0.82823597  0.30255280  0.32574776    -0.16900
C1987       C  0.84812824  0.32256348  0.30251458    -0.27300
C1988       C  0.87144629  0.34375111  0.31982112     0.18700
C1989       C  0.85371992  0.33199905  0.42489019     0.12700
C1990       C  0.80812528  0.28317748  0.39035956    -0.11700
H1991       H  0.81055893  0.28620625  0.31242854     0.13000
C1992       C  0.89495258  0.36466627  0.29695983    -0.22500
H1993       H  0.89050024  0.36243955  0.37324338     0.08600
C1994       C  0.86816245  0.32523906  0.45037251     0.05000
C1995       C  0.86886302  0.33139233  0.48961761    -0.19700
C1996       C  0.85555015  0.34429118  0.50380068    -0.12000
C1997       C  0.84215572  0.35215471  0.47766884     0.13700
C1998       C  0.84110772  0.34552114  0.43870793    -0.22400
C1999       C  0.88233502  0.31112180  0.43620463    -0.05500
H2000       H  0.87901183  0.32519912  0.50950702     0.15200
C2001       C  0.82944716  0.36825013  0.48938161    -0.15700
H2002       H  0.83066756  0.35132146  0.41871800     0.09500
H2003       H  0.91347269  0.36508007  0.30613817     0.07400
H2004       H  0.89741255  0.38469530  0.30229740     0.08600
H2005       H  0.89292392  0.36070640  0.26562794     0.07600
H2006       H  0.79892501  0.29223644  0.40831870     0.02500
H2007       H  0.81645384  0.27386198  0.40934941     0.03000
H2008       H  0.79214417  0.26711551  0.37249072     0.06500
H2009       H  0.89246395  0.30700851  0.45995119     0.05500
H2010       H  0.89772898  0.32376425  0.41462161    -0.00300
H2011       H  0.86768025  0.29171304  0.42274246     0.01200
H2012       H  0.83749720  0.38640268  0.47111364     0.04800
H2013       H  0.83368866  0.37537453  0.51950397     0.06800
H2014       H  0.80743075  0.35601361  0.48525308     0.07700
C2015       C  0.87571999  0.24240126  0.05475734    -0.22000
C2016       C  0.89072823  0.23457371  0.07672899     0.10000
C2017       C  0.89241046  0.23870769  0.11693136     0.10400
C2018       C  0.87972898  0.25143714  0.13407477    -0.16900
C2019       C  0.86599646  0.26066405  0.11169446    -0.27300
C2020       C  0.86331359  0.25534621  0.07165536     0.18700
C2021       C  0.90689942  0.22495538  0.05644371     0.12700
C2022       C  0.90859323  0.23077078  0.14138899    -0.11700
H2023       H  0.88199687  0.25572551  0.16461879     0.13000
C2024       C  0.84781059  0.26340032  0.04574743    -0.22500
H2025       H  0.87441521  0.23918104  0.02394341     0.08600
C2026       C  0.89694806  0.19760874  0.04825837     0.05000
C2027       C  0.91370427  0.18985400  0.02996110    -0.19700
C2028       C  0.94013021  0.20892782  0.01943124    -0.12000
C2029       C  0.94927011  0.23652499  0.02533993     0.13700
C2030       C  0.93272350  0.24405215  0.04431956    -0.22400
C2031       C  0.86886859  0.17668217  0.05947241    -0.05500
H2032       H  0.90654056  0.16875124  0.02544512     0.15200
C2033       C  0.97613360  0.25872360  0.01140579    -0.15700
H2034       H  0.94001216  0.26512524  0.04958012     0.09500
H2035       H  0.83217679  0.24545833  0.03027812     0.07400
H2036       H  0.86158139  0.27822359  0.02435389     0.08600
H2037       H  0.83752276  0.27225350  0.06154518     0.07600
H2038       H  0.92982934  0.24173007  0.13185185     0.02500
H2039       H  0.90057056  0.20890247  0.13872240     0.03000
H2040       H  0.90797947  0.23550479  0.17219818     0.06500
H2041       H  0.86418238  0.15623603  0.05108853     0.05500
H2042       H  0.85434690  0.18083983  0.04500418    -0.00300
H2043       H  0.86634352  0.17703245  0.09105079     0.01200
H2044       H  0.97326197  0.27302325  0.99388424     0.04800
H2045       H  0.98673048  0.25151640  0.99283789     0.06800
H2046       H  0.98899044  0.26962144  0.03641448     0.07700
C2047       C  0.76834482  0.40747693  0.16376492    -0.22000
C2048       C  0.78621516  0.43490096  0.15826454     0.10000
C2049       C  0.81392505  0.44440945  0.15553927     0.10400
C2050       C  0.82305038  0.42606836  0.15756940    -0.16900
C2051       C  0.80498960  0.39843089  0.16175649    -0.27300
C2052       C  0.77729757  0.38914873  0.16567292     0.18700
C2053       C  0.77489669  0.45275281  0.15420592     0.12700
C2054       C  0.83366995  0.47373389  0.14950875    -0.11700
H2055       H  0.84425097  0.43321015  0.15470293     0.13000
C2056       C  0.75657996  0.36016761  0.17276613    -0.22500
H2057       H  0.74709994  0.40026495  0.16632179     0.08600
C2058       C  0.76230543  0.45317266  0.11988336     0.05000
C2059       C  0.74825437  0.46697509  0.11879417    -0.19700
C2060       C  0.74626337  0.48045004  0.15127966    -0.12000
C2061       C  0.76025010  0.48123127  0.18515921     0.13700
C2062       C  0.77431344  0.46730041  0.18611640    -0.22400
C2063       C  0.76334632  0.43864606  0.08449958    -0.05500
H2064       H  0.73813607  0.46661561  0.09250064     0.15200
C2065       C  0.75952575  0.49551866  0.22100758    -0.15700
H2066       H  0.78409160  0.46689892  0.21235926     0.09500
H2067       H  0.74218514  0.35236313  0.14850914     0.07400
H2068       H  0.74548362  0.35855818  0.19964670     0.08600
H2069       H  0.76528741  0.34718653  0.17616408     0.07600
H2070       H  0.83257382  0.48551906  0.17392462     0.02500
H2071       H  0.82892643  0.48051887  0.12245125     0.03000
H2072       H  0.85453610  0.47782190  0.14747531     0.06500
H2073       H  0.75286938  0.44136792  0.05985644     0.05500
H2074       H  0.75361299  0.41684645  0.09031973    -0.00300
H2075       H  0.78453097  0.44646402  0.07607951     0.01200
H2076       H  0.77093137  0.49333841  0.24485810     0.04800
H2077       H  0.73851746  0.48708962  0.23081252     0.06800
H2078       H  0.76868668  0.51726948  0.21517322     0.07700
C2079       C  0.69505069  0.24968852  0.19117693    -0.22000
C2080       C  0.68211445  0.22552609  0.17064739     0.10000
C2081       C  0.69748357  0.21626210  0.15177352     0.10400
C2082       C  0.72558508  0.23222214  0.15204334    -0.16900
C2083       C  0.73840307  0.25717533  0.17069050    -0.27300
C2084       C  0.72301899  0.26559716  0.19162172     0.18700
C2085       C  0.65267528  0.21197704  0.16602459     0.12700
C2086       C  0.68421570  0.18979442  0.13089832    -0.11700
H2087       H  0.73744130  0.22585199  0.13630355     0.13000
C2088       C  0.73540703  0.29140179  0.21422267    -0.22500
H2089       H  0.68317526  0.25669160  0.20584085     0.08600
C2090       C  0.63487915  0.19809853  0.19637792     0.05000
C2091       C  0.60734895  0.18800668  0.19135971    -0.19700
C2092       C  0.59713422  0.19175073  0.15673342    -0.12000
C2093       C  0.61520146  0.20504484  0.12582437     0.13700
C2094       C  0.64264745  0.21494982  0.13108198    -0.22400
C2095       C  0.64495060  0.19400868  0.23406529    -0.05500
H2096       H  0.59393433  0.17783781  0.21503579     0.15200
C2097       C  0.60612975  0.20898838  0.08709057    -0.15700
H2098       H  0.65660503  0.22575398  0.10800577     0.09500
H2099       H  0.72932075  0.28689989  0.24484149     0.07400
H2100       H  0.72810819  0.30439223  0.20288242     0.08600
H2101       H  0.75758973  0.30267653  0.21315911     0.07600
H2102       H  0.67165918  0.19005201  0.10712690     0.02500
H2103       H  0.67138100  0.17347634  0.15121927     0.03000
H2104       H  0.69914688  0.18532104  0.11842200     0.06500
H2105       H  0.62831256  0.18220299  0.25449159     0.05500
H2106       H  0.65874112  0.21367911  0.24762798    -0.00300
H2107       H  0.65579790  0.18306573  0.22909010     0.01200
H2108       H  0.62288787  0.21814982  0.06607613     0.04800
H2109       H  0.59810173  0.22268828  0.08968297     0.06800
H2110       H  0.59063025  0.18935154  0.07519738     0.07700
C2111       C  0.03480742  0.46615350  0.22859065    -0.22000
C2112       C  0.01405809  0.44161055  0.24205588     0.10000
C2113       C  0.01825529  0.42978051  0.27453670     0.10400
C2114       C  0.04361861  0.44227358  0.29192303    -0.16900
C2115       C  0.06513866  0.46636305  0.27750689    -0.27300
C2116       C  0.06026332  0.47879541  0.24570970     0.18700
C2117       C  0.98831172  0.42817618  0.22090233     0.12700
C2118       C  0.99595251  0.40385978  0.29070343    -0.11700
H2119       H  0.04675919  0.43261929  0.31620028     0.13000
C2120       C  0.08147225  0.50510598  0.22876888    -0.22500
H2121       H  0.03117780  0.47509754  0.20387150     0.08600
C2122       C  0.96930498  0.43625516  0.22520075     0.05000
C2123       C  0.94455712  0.42175278  0.20645065    -0.19700
C2124       C  0.93813068  0.39911785  0.18362569    -0.12000
C2125       C  0.95784932  0.39177436  0.17815391     0.13700
C2126       C  0.98271121  0.40657114  0.19670679    -0.22400
C2127       C  0.97478680  0.45960711  0.25061518    -0.05500
H2128       H  0.92976438  0.42768662  0.21073825     0.15200
C2129       C  0.95269131  0.36775306  0.15449686    -0.15700
H2130       H  0.99767411  0.40078307  0.19330756     0.09500
H2131       H  0.07332550  0.51212536  0.20573686     0.07400
H2132       H  0.09768735  0.50286386  0.21559736     0.08600
H2133       H  0.08971139  0.52083689  0.25139543     0.07600
H2134       H  0.98924497  0.38765948  0.26891970     0.02500
H2135       H  0.97879797  0.40632218  0.29885533     0.03000
H2136       H  0.00241216  0.39756049  0.31662343     0.06500
H2137       H  0.95753385  0.46291085  0.25146019     0.05500
H2138       H  0.99245853  0.47818219  0.23968717    -0.00300
H2139       H  0.97879611  0.45581226  0.28037913     0.01200
H2140       H  0.97024350  0.36491800  0.15421822     0.04800
H2141       H  0.94848080  0.37042828  0.12428934     0.06800
H2142       H  0.93548722  0.34928822  0.16662491     0.07700
loop_ 
_geom_bond_atom_site_label_1 
_geom_bond_atom_site_label_2 
_geom_bond_distance 
_geom_bond_site_symmetry_2 
_ccdc_geom_bond_type 
O1           C17   1.277       .  A
O1           Zn7   2.025       .  S
C2           O18   1.276       .  A
C2           O15   1.273       .  A
C2         C2124   1.491       .  S
O3           C16   1.279       .  A
O3          Cd10   2.107       .  S
O4           C22   1.276       .  A
O4          Cd13   2.057       .  S
O5           C19   1.276       .  A
O5           Cd9   2.078       .  S
O6           C17   1.276       .  A
O6           Cd9   2.072       .  S
Zn7          O18   2.034       .  S
Zn7          O20   2.001       .  S
Zn7          O12   1.930       .  S
O8           C19   1.276       .  A
O8          Cd13   2.090       .  S
Cd9          O11   2.060       .  S
Cd9          O12   1.977       .  S
Cd10         O14   2.088       .  S
Cd10         O23   2.091       .  S
Cd10         O12   2.013       .  S
O11          C21   1.274       .  A
O12         Cd13   1.986       .  S
Cd13         O15   2.053       .  S
O14          C21   1.277       .  A
C16          O20   1.272       .  A
C16        C2019   1.481       .  S
C17        C1964   1.476       .  S
C19        C2051   1.483       .  S
C21        C2083   1.470       .  S
C22          O23   1.279       .  A
C22        C1987   1.475       .  S
O24          C40   1.278       .  A
O24         Zn30   2.039       .  S
C25          O41   1.277       .  A
C25          O38   1.273       .  A
C25        C1932   1.494       .  S
O26          C39   1.277       .  A
O26         Cd33   2.086       .  S
O27          C45   1.274       .  A
O27         Cd36   2.058       .  S
O28          C42   1.275       .  A
O28         Cd32   2.071       .  S
O29          C40   1.274       .  A
O29         Cd32   2.054       .  S
Zn30         O41   2.045       .  S
Zn30         O43   2.003       .  S
Zn30         O35   1.941       .  S
O31          C42   1.273       .  A
O31         Cd36   2.063       .  S
Cd32         O34   2.050       .  S
Cd32         O35   1.981       .  S
Cd33         O37   2.087       .  S
Cd33         O46   2.086       .  S
Cd33         O35   2.005       .  S
O34          C44   1.272       .  A
O35         Cd36   1.981       .  S
Cd36         O38   2.048       .  S
O37          C44   1.277       .  A
C39          O43   1.273       .  A
C39        C1827   1.479       .  S
C40        C1996   1.481       .  S
C42        C1859   1.477       .  S
C44        C1900   1.478       .  S
C45          O46   1.277       .  A
C45        C1955   1.481       .  S
O47          C63   1.278       .  A
O47         Zn53   2.035       .  S
C48          O64   1.278       .  A
C48          O61   1.274       .  A
C48        C1763   1.501       .  S
O49          C62   1.279       .  A
O49         Cd56   2.103       .  S
O50          C68   1.273       .  A
O50         Cd59   2.045       .  S
O51          C65   1.272       .  A
O51         Cd55   2.063       .  S
O52          C63   1.273       .  A
O52         Cd55   2.050       .  S
Zn53         O64   2.053       .  S
Zn53         O66   2.004       .  S
Zn53         O58   1.933       .  S
O54          C65   1.275       .  A
O54         Cd59   2.074       .  S
Cd55         O57   2.050       .  S
Cd55         O58   1.974       .  S
Cd56         O60   2.097       .  S
Cd56         O69   2.089       .  S
Cd56         O58   2.010       .  S
O57          C67   1.273       .  A
O58         Cd59   1.979       .  S
Cd59         O61   2.052       .  S
O60          C67   1.278       .  A
C62          O66   1.274       .  A
C62        C1795   1.477       .  S
C63        C1667   1.482       .  S
C65        C2092   1.493       .  S
C67        C1731   1.482       .  S
C68          O69   1.278       .  A
C68        C1699   1.471       .  S
O70          C86   1.277       .  A
O70         Zn76   2.030       .  S
C71          O87   1.276       .  A
C71          O84   1.273       .  A
C71        C1603   1.495       .  S
O72          C85   1.276       .  A
O72         Cd79   2.087       .  S
O73          C91   1.271       .  A
O73         Cd82   2.039       .  S
O74          C88   1.276       .  A
O74         Cd78   2.077       .  S
O75          C86   1.273       .  A
O75         Cd78   2.050       .  S
Zn76         O87   2.036       .  S
Zn76         O89   1.993       .  S
Zn76         O81   1.933       .  S
O77          C88   1.271       .  A
O77         Cd82   2.055       .  S
Cd78         O80   2.043       .  S
Cd78         O81   1.974       .  S
Cd79         O83   2.079       .  S
Cd79         O92   2.098       .  S
Cd79         O81   2.007       .  S
O80          C90   1.272       .  A
O81         Cd82   1.970       .  S
Cd82         O84   2.044       .  S
O83          C90   1.276       .  A
C85          O89   1.271       .  A
C85        C1635   1.477       .  S
C86        C1708   1.475       .  S
C88        C1891   1.488       .  S
C90        C1580   1.470       .  S
C91          O92   1.279       .  A
C91        C1676   1.477       .  S
O93         C109   1.277       .  A
O93         Zn99   2.031       .  S
C94         O110   1.276       .  A
C94         O107   1.274       .  A
C94        C1507   1.502       .  S
O95         C108   1.280       .  A
O95        Cd102   2.114       .  S
O96         C114   1.271       .  A
O96        Cd105   2.033       .  S
O97         C111   1.276       .  A
O97        Cd101   2.083       .  S
O98         C109   1.274       .  A
O98        Cd101   2.055       .  S
Zn99        O110   2.044       .  S
Zn99        O112   2.000       .  S
Zn99        O104   1.940       .  S
O100        C111   1.274       .  A
O100       Cd105   2.070       .  S
Cd101       O103   2.069       .  S
Cd101       O104   1.982       .  S
Cd102       O106   2.101       .  S
Cd102       O115   2.105       .  S
Cd102       O104   2.015       .  S
O103        C113   1.276       .  A
O104       Cd105   1.983       .  S
Cd105       O107   2.063       .  S
O106        C113   1.279       .  A
C108        O112   1.271       .  A
C108       C1539   1.479       .  S
C109       C1452   1.473   1_554  S
C111       C1740   1.481       .  S
C113       C2060   1.497       .  S
C114        O115   1.281       .  A
C114       C1475   1.473       .  S
O116        C132   1.278       .  A
O116       Zn122   2.036       .  S
C117        O133   1.277       .  A
C117        O130   1.270       .  A
C117       C1388   1.483       .  S
O118        C131   1.276       .  A
O118       Cd125   2.083       .  S
O119        C137   1.271       .  A
O119       Cd128   2.047       .  S
O120        C134   1.273       .  A
O120       Cd124   2.059       .  S
O121        C132   1.274       .  A
O121       Cd124   2.052       .  S
Zn122       O133   2.043       .  S
Zn122       O135   1.988       .  S
Zn122       O127   1.933       .  S
O123        C134   1.273       .  A
O123       Cd128   2.059       .  S
Cd124       O126   2.056       .  S
Cd124       O127   1.977       .  S
Cd125       O129   2.082       .  S
Cd125       O138   2.082       .  S
Cd125       O127   2.007       .  S
O126        C136   1.274       .  A
O127       Cd128   1.978       .  S
Cd128       O130   2.044       .  S
O129        C136   1.276       .  A
C131        O135   1.272       .  A
C131       C1420   1.475       .  S
C132       C1484   1.475       .  S
C134       C1571   1.472       .  S
C136       C1868   1.480       .  S
C137        O138   1.277       .  A
C137       C1443   1.482       .  S
O139        C155   1.278       .  A
O139       Zn145   2.037       .  S
C140        O156   1.279       .  A
C140        O153   1.270       .  A
C140       C1772   1.494       .  S
O141        C154   1.280       .  A
O141       Cd148   2.110       .  S
O142        C160   1.273       .  A
O142       Cd151   2.043       .  S
O143        C157   1.274       .  A
O143       Cd147   2.067       .  S
O144        C155   1.276       .  A
O144       Cd147   2.055       .  S
Zn145       O156   2.048       .  S
Zn145       O158   1.983       .  S
Zn145       O150   1.925       .  S
O146        C157   1.274       .  A
O146       Cd151   2.070       .  S
Cd147       O149   2.055       .  S
Cd147       O150   1.970       .  S
Cd148       O152   2.090       .  S
Cd148       O161   2.095       .  S
Cd148       O150   2.010       .  S
O149        C159   1.273       .  A
O150       Cd151   1.977       .  S
Cd151       O153   2.048       .  S
O152        C159   1.277       .  A
C154        O158   1.269       .  A
C154       C1283   1.491       .  S
C155       C1219   1.486       .  S
C157       C1347   1.476       .  S
C159       C1324   1.472       .  S
C160        O161   1.279       .  A
C160       C1251   1.472       .  S
O162        C178   1.278       .  A
O162       Zn168   2.034       .  S
C163        O179   1.279       .  A
C163        O176   1.271       .  A
C163       C1612   1.486       .  S
O164        C177   1.278       .  A
O164       Cd171   2.093       .  S
O165        C183   1.273       .  A
O165       Cd174   2.040       .  S
O166        C180   1.274       .  A
O166       Cd170   2.072       .  S
O167        C178   1.273       .  A
O167       Cd170   2.052       .  S
Zn168       O179   2.049       .  S
Zn168       O181   2.009       .  S
Zn168       O173   1.938       .  S
O169        C180   1.274       .  A
O169       Cd174   2.064       .  S
Cd170       O172   2.055       .  S
Cd170       O173   1.977       .  S
Cd171       O175   2.087       .  S
Cd171       O184   2.096       .  S
Cd171       O173   2.006       .  S
O172        C182   1.274       .  A
O173       Cd174   1.973       .  S
Cd174       O176   2.042       .  S
O175        C182   1.277       .  A
C177        O181   1.273       .  A
C177       C1123   1.479       .  S
C178       C1260   1.479       .  S
C180       C1187   1.487       .  S
C182       C1155   1.479       .  S
C183        O184   1.279       .  A
C183       C1228   1.485       .  S
O185        C201   1.278       .  A
O185       Zn191   2.040       .  S
C186        O202   1.280       .  A
C186        O199   1.270       .  A
C186       C2115   1.499       .  S
O187        C200   1.280       .  A
O187       Cd194   2.108       .  S
O188        C206   1.274       .  A
O188       Cd197   2.053       .  S
O189        C203   1.272       .  A
O189       Cd193   2.063       .  S
O190        C201   1.274       .  A
O190       Cd193   2.054       .  S
Zn191       O202   2.052       .  S
Zn191       O204   2.012       .  S
Zn191       O196   1.941       .  S
O192        C203   1.276       .  A
O192       Cd197   2.083       .  S
Cd193       O195   2.060       .  S
Cd193       O196   1.976       .  S
Cd194       O198   2.095       .  S
Cd194       O207   2.094       .  S
Cd194       O196   2.008       .  S
O195        C205   1.273       .  A
O196       Cd197   1.985       .  S
Cd197       O199   2.048       .  S
O198        C205   1.278       .  A
C200        O204   1.274       .  A
C200       C1100   1.490       .  S
C201        C995   1.480       .  S
C203       C1315   1.497       .  S
C205       C1068   1.492       .  S
C206        O207   1.279       .  A
C206       C1036   1.472       .  S
O208        C224   1.277       .  A
O208       Zn214   2.027       .  S
C209        O225   1.277       .  A
C209        O222   1.272       .  A
C209       C1923   1.480       .  S
O210        C223   1.278       .  A
O210       Cd217   2.092       .  S
O211        C229   1.275       .  A
O211       Cd220   2.055       .  S
O212        C226   1.274       .  A
O212       Cd216   2.069       .  S
O213        C224   1.275       .  A
O213       Cd216   2.060       .  S
Zn214       O225   2.033       .  S
Zn214       O227   1.997       .  S
Zn214       O219   1.932       .  S
O215        C226   1.276       .  A
O215       Cd220   2.075       .  S
Cd216       O218   2.059       .  S
Cd216       O219   1.975       .  S
Cd217       O221   2.078       .  S
Cd217       O230   2.089       .  S
Cd217       O219   2.004       .  S
O218        C228   1.274       .  A
O219       Cd220   1.981       .  S
Cd220       O222   2.049       .  S
O221        C228   1.275       .  A
C223        O227   1.272       .  A
C223        C963   1.478       .  S
C224       C1027   1.476       .  S
C226       C1164   1.486       .  S
C228        C940   1.472       .  S
C229        O230   1.278       .  A
C229       C1004   1.477       .  S
O231        C247   1.278       .  A
O231       Zn237   2.041       .  S
C232        O248   1.279       .  A
C232        O245   1.273       .  A
C232       C1516   1.498       .  S
O233        C246   1.278       .  A
O233       Cd240   2.105       .  S
O234        C252   1.274       .  A
O234       Cd243   2.055       .  S
O235        C249   1.275       .  A
O235       Cd239   2.070       .  S
O236        C247   1.273       .  A
O236       Cd239   2.049       .  S
Zn237       O248   2.046       .  S
Zn237       O250   2.007       .  S
Zn237       O242   1.945       .  S
O238        C249   1.277       .  A
O238       Cd243   2.087       .  S
Cd239       O241   2.058       .  S
Cd239       O242   1.982       .  S
Cd240       O244   2.090       .  S
Cd240       O253   2.099       .  S
Cd240       O242   2.013       .  S
O241        C251   1.273       .  A
O242       Cd243   1.988       .  S
Cd243       O245   2.064       .  S
O244        C251   1.277       .  A
C246        O250   1.272       .  A
C246        C908   1.479       .  S
C247        C835   1.478       .  S
C249       C1059   1.485       .  S
C251       C1356   1.482       .  S
C252        O253   1.280       .  A
C252        C867   1.478       .  S
O254        C270   1.278       .  A
O254       Zn260   2.040       .  S
C255        O271   1.277       .  A
C255        O268   1.272       .  A
C255       C1379   1.474       .  S
O256        C269   1.278       .  A
O256       Cd263   2.099       .  S
O257        C275   1.275       .  A
O257       Cd266   2.055       .  S
O258        C272   1.274       .  A
O258       Cd262   2.063       .  S
O259        C270   1.274       .  A
O259       Cd262   2.057       .  S
Zn260       O271   2.034       .  S
Zn260       O273   1.984       .  S
Zn260       O265   1.928       .  S
O261        C272   1.276       .  A
O261       Cd266   2.074       .  S
Cd262       O264   2.051       .  S
Cd262       O265   1.965       .  S
Cd263       O267   2.087       .  S
Cd263       O276   2.091       .  S
Cd263       O265   2.007       .  S
O264        C274   1.273       .  A
O265       Cd266   1.976       .  S
Cd266       O268   2.051       .  S
O267        C274   1.277       .  A
C269        O273   1.271       .  A
C269        C812   1.474       .  S
C270        C876   1.477       .  S
C272        C931   1.485       .  S
C274       C1196   1.475       .  S
C275        O276   1.279       .  A
C275        C844   1.475       .  S
O277        C293   1.271   1_554  A
O277       Zn283   2.000       .  S
C278        O294   1.273       .  A
C278        O291   1.274       .  A
C278        C707   1.491       .  S
O279        C292   1.278       .  A
O279       Cd286   2.103       .  S
O280        C298   1.273       .  A
O280       Cd289   2.050   1_545  S
O281        C295   1.274       .  A
O281       Cd285   2.078       .  S
O282        C293   1.277       .  A
O282       Cd285   2.091       .  S
Zn283       O294   1.991       .  S
Zn283       O296   1.990   1_565  S
Zn283       O288   1.912   1_554  S
O284        C295   1.277       .  A
O284       Cd289   2.074   1_556  S
Cd285       O287   2.057       .  S
Cd285       O288   1.992       .  S
Cd286       O290   2.093       .  S
Cd286       O299   2.108       .  S
Cd286       O288   2.012   1_545  S
O287        C297   1.276   1_565  A
O288       Cd289   1.984   1_556  S
Cd289       O291   2.070       .  S
O290        C297   1.280       .  A
C292        O296   1.272   1_556  A
C292        C771   1.488       .  S
C293        C739   1.487       .  S
C295       C1132   1.501       .  S
C297        C675   1.481       .  S
C298        O299   1.280   1_554  A
C298       C1804   1.485       .  S
O300        C316   1.275       .  A
O300       Zn306   2.026   1_545  S
C301        O317   1.274   1_545  A
C301        O314   1.274       .  A
C301        C716   1.475       .  S
O302        C315   1.276       .  A
O302       Cd309   2.083       .  S
O303        C321   1.274       .  A
O303       Cd312   2.061   1_565  S
O304        C318   1.275       .  A
O304       Cd308   2.059       .  S
O305        C316   1.275       .  A
O305       Cd308   2.079       .  S
Zn306       O317   2.003       .  S
Zn306       O319   1.994       .  S
Zn306       O311   1.911       .  S
O307        C318   1.276       .  A
O307       Cd312   2.075       .  S
Cd308       O310   2.055       .  S
Cd308       O311   1.978   1_545  S
Cd309       O313   2.088       .  S
Cd309       O322   2.097       .  S
Cd309       O311   2.003       .  S
O310        C320   1.274   1_545  A
O311       Cd312   1.980   1_565  S
Cd312       O314   2.064       .  S
O313        C320   1.278       .  A
C315        O319   1.274       .  A
C315        C611   1.494       .  S
C316        C652   1.485       .  S
C318       C1644   1.487       .  S
C320        C684   1.468       .  S
C321        O322   1.278       .  A
C321       C1292   1.479       .  S
O323        C339   1.276   1_554  A
O323       Zn329   2.039       .  S
C324        O340   1.276       .  A
C324        O337   1.276       .  A
C324        C547   1.480       .  S
O325        C338   1.277       .  A
O325       Cd332   2.085       .  S
O326        C344   1.272       .  A
O326       Cd335   2.052   1_655  S
O327        C341   1.270       .  A
O327       Cd331   2.054       .  S
O328        C339   1.273       .  A
O328       Cd331   2.065       .  S
Zn329       O340   2.025       .  S
Zn329       O342   2.017   1_455  S
Zn329       O334   1.939   1_554  S
O330        C341   1.278       .  A
O330       Cd335   2.091   1_556  S
Cd331       O333   2.040       .  S
Cd331       O334   1.983       .  S
Cd332       O336   2.106       .  S
Cd332       O345   2.113       .  S
Cd332       O334   2.022   1_655  S
O333        C343   1.272   1_455  A
O334       Cd335   1.994   1_556  S
Cd335       O337   2.068       .  S
O336        C343   1.280       .  A
C338        O342   1.275   1_556  A
C338        C579   1.478       .  S
C339        C780   1.481       .  S
C341        C972   1.499       .  S
C343        C515   1.484       .  S
C344        O345   1.280   1_554  A
C344       C2028   1.488       .  S
O346        C362   1.274       .  A
O346       Zn352   2.023       .  S
C347        O363   1.275       .  A
C347        O360   1.277       .  A
C347        C556   1.472       .  S
O348        C361   1.278       .  A
O348       Cd355   2.095       .  S
O349        C367   1.273       .  A
O349       Cd358   2.059   1_455  S
O350        C364   1.274       .  A
O350       Cd354   2.057       .  S
O351        C362   1.274       .  A
O351       Cd354   2.070       .  S
Zn352       O363   2.006       .  S
Zn352       O365   2.012   1_655  S
Zn352       O357   1.924       .  S
O353        C364   1.277       .  A
O353       Cd358   2.088       .  S
Cd354       O356   2.042       .  S
Cd354       O357   1.985       .  S
Cd355       O359   2.099       .  S
Cd355       O368   2.114       .  S
Cd355       O357   2.008   1_455  S
O356        C366   1.272   1_655  A
O357       Cd358   1.993       .  S
Cd358       O360   2.077       .  S
O359        C366   1.280       .  A
C361        O365   1.273       .  A
C361        C643   1.490       .  S
C362        C483   1.481       .  S
C364       C1836   1.492       .  S
C366        C524   1.467       .  S
C367        O368   1.280       .  A
C367       C1091   1.481       .  S
O369        C385   1.277   1_554  A
O369       Zn375   2.034       .  S
C370        O386   1.276       .  A
C370        O383   1.276       .  A
C370        C451   1.474       .  S
O371        C384   1.276       .  A
O371       Cd378   2.079       .  S
O372        C390   1.271       .  A
O372       Cd381   2.049       .  S
O373        C387   1.273       .  A
O373       Cd377   2.060       .  S
O374        C385   1.273       .  A
O374       Cd377   2.067       .  S
Zn375       O386   2.028       .  S
Zn375       O388   2.028       .  S
Zn375       O380   1.935   1_554  S
O376        C387   1.276       .  A
O376       Cd381   2.084   1_556  S
Cd377       O379   2.041       .  S
Cd377       O380   1.983       .  S
Cd378       O382   2.105       .  S
Cd378       O391   2.107       .  S
Cd378       O380   2.011       .  S
O379        C389   1.273       .  A
O380       Cd381   1.989   1_556  S
Cd381       O383   2.068       .  S
O382        C389   1.281       .  A
C384        O388   1.276   1_556  A
C384        C748   1.484       .  S
C385        C588   1.492       .  S
C387        C803   1.482       .  S
C389        C419   1.492       .  S
C390        O391   1.279   1_554  A
C390       C1548   1.479       .  S
O392        C408   1.273       .  A
O392       Zn398   2.024       .  S
C393        O409   1.274       .  A
C393        O406   1.276       .  A
C393        C460   1.477       .  S
O394        C407   1.278       .  A
O394       Cd401   2.088       .  S
O395        C413   1.274       .  A
O395       Cd404   2.060       .  S
O396        C410   1.272       .  A
O396       Cd400   2.048       .  S
O397        C408   1.272       .  A
O397       Cd400   2.060       .  S
Zn398       O409   2.005       .  S
Zn398       O411   2.005       .  S
Zn398       O403   1.931       .  S
O399        C410   1.277       .  A
O399       Cd404   2.087       .  S
Cd400       O402   2.033       .  S
Cd400       O403   1.981       .  S
Cd401       O405   2.109       .  S
Cd401       O414   2.112       .  S
Cd401       O403   2.017       .  S
O402        C412   1.271       .  A
O403       Cd404   1.992       .  S
Cd404       O406   2.075       .  S
O405        C412   1.281       .  A
C407        O411   1.273       .  A
C407        C492   1.487       .  S
C408        C620   1.472       .  S
C410       C1411   1.490       .  S
C412        C428   1.482       .  S
C413        O414   1.281       .  A
C413        C899   1.486       .  S
C415        C416   1.402       .  A
C415        C420   1.407       .  A
C415        H425   1.083       .  S
C416        C421   1.480       .  S
C416        C417   1.406       .  A
C417        C418   1.401       .  A
C417        C422   1.508       .  S
C418        C419   1.411       .  A
C418        H423   1.084       .  S
C419        C420   1.419       .  A
C420        C424   1.507       .  S
C421        C426   1.407       .  A
C421        C430   1.403       .  A
C422        H438   1.110       .  S
C422        H439   1.109       .  S
C422        H440   1.111       .  S
C424        H435   1.109       .  S
C424        H436   1.111       .  S
C424        H437   1.111       .  S
C426        C427   1.400       .  A
C426        C431   1.508       .  S
C427        C428   1.408       .  A
C427        H432   1.085       .  S
C428        C429   1.419       .  A
C429        C430   1.407       .  A
C429        C433   1.508       .  S
C430        H434   1.084       .  S
C431        H441   1.111       .  S
C431        H442   1.110       .  S
C431        H443   1.109       .  S
C433        H444   1.111       .  S
C433        H445   1.104       .  S
C433        H446   1.110       .  S
C447        C448   1.399       .  A
C447        C452   1.401       .  A
C447        H457   1.085       .  S
C448        C453   1.481       .  S
C448        C449   1.412       .  A
C449        C450   1.406       .  A
C449        C454   1.506       .  S
C450        C451   1.403       .  A
C450        H455   1.084       .  S
C451        C452   1.418       .  A
C452        C456   1.510       .  S
C453        C458   1.410       .  A
C453        C462   1.402       .  A
C454        H470   1.110       .  S
C454        H471   1.111       .  S
C454        H472   1.111       .  S
C456        H467   1.110       .  S
C456        H468   1.111       .  S
C456        H469   1.106       .  S
C458        C459   1.403       .  A
C458        C463   1.507       .  S
C459        C460   1.405       .  A
C459        H464   1.085       .  S
C460        C461   1.416       .  A
C461        C462   1.403       .  A
C461        C465   1.508       .  S
C462        H466   1.085       .  S
C463        H473   1.111       .  S
C463        H474   1.110       .  S
C463        H475   1.110       .  S
C465        H476   1.111       .  S
C465        H477   1.108       .  S
C465        H478   1.110       .  S
C479        C480   1.401       .  A
C479        C484   1.405       .  A
C479        H489   1.085       .  S
C480        C485   1.482   1_545  S
C480        C481   1.410       .  A
C481        C482   1.403       .  A
C481        C486   1.507       .  S
C482        C483   1.405       .  A
C482        H487   1.085       .  S
C483        C484   1.418       .  A
C484        C488   1.508       .  S
C485        C490   1.410       .  A
C485        C494   1.399       .  A
C486        H502   1.110       .  S
C486        H503   1.110   1_545  S
C486        H504   1.111       .  S
C488        H499   1.111       .  S
C488        H500   1.110       .  S
C488        H501   1.107       .  S
C490        C491   1.407       .  A
C490        C495   1.505       .  S
C491        C492   1.407       .  A
C491        H496   1.084       .  S
C492        C493   1.421       .  A
C493        C494   1.403       .  A
C493        C497   1.510       .  S
C494        H498   1.085       .  S
C495        H505   1.111       .  S
C495        H506   1.110       .  S
C495        H507   1.110       .  S
C497        H508   1.110       .  S
C497        H509   1.111       .  S
C497        H510   1.111       .  S
C511        C512   1.404   1_655  A
C511        C516   1.409       .  A
C511        H521   1.082       .  S
C512        C517   1.480       .  S
C512        C513   1.407       .  A
C513        C514   1.399       .  A
C513        C518   1.508       .  S
C514        C515   1.408   1_455  A
C514        H519   1.081       .  S
C515        C516   1.416       .  A
C516        C520   1.506       .  S
C517        C522   1.411       .  A
C517        C526   1.401   1_455  A
C518        H534   1.110       .  S
C518        H535   1.111       .  S
C518        H536   1.111       .  S
C520        H531   1.111       .  S
C520        H532   1.111       .  S
C520        H533   1.109       .  S
C522        C523   1.403       .  A
C522        C527   1.506       .  S
C523        C524   1.401       .  A
C523        H528   1.086       .  S
C524        C525   1.414       .  A
C525        C526   1.402   1_455  A
C525        C529   1.509   1_455  S
C526        H530   1.085       .  S
C527        H537   1.111       .  S
C527        H538   1.110   1_455  S
C527        H539   1.109       .  S
C529        H540   1.111       .  S
C529        H541   1.108       .  S
C529        H542   1.110   1_655  S
C543        C544   1.403       .  A
C543        C548   1.405       .  A
C543        H553   1.084       .  S
C544        C549   1.482       .  S
C544        C545   1.410   1_455  A
C545        C546   1.402   1_655  A
C545        C550   1.507       .  S
C546        C547   1.406       .  A
C546        H551   1.084   1_455  S
C547        C548   1.415       .  A
C548        C552   1.507       .  S
C549        C554   1.412   1_455  A
C549        C558   1.402       .  A
C550        H566   1.109       .  S
C550        H567   1.111       .  S
C550        H568   1.111       .  S
C552        H563   1.111       .  S
C552        H564   1.110       .  S
C552        H565   1.109       .  S
C554        C555   1.402       .  A
C554        C559   1.507       .  S
C555        C556   1.402       .  A
C555        H560   1.084       .  S
C556        C557   1.418   1_655  A
C557        C558   1.403       .  A
C557        C561   1.510       .  S
C558        H562   1.085       .  S
C559        H569   1.111       .  S
C559        H570   1.109       .  S
C559        H571   1.110       .  S
C561        H572   1.111       .  S
C561        H573   1.106       .  S
C561        H574   1.111       .  S
C575        C576   1.402   1_554  A
C575        C580   1.408       .  A
C575        H585   1.084       .  S
C576        C581   1.482   1_546  S
C576        C577   1.411       .  A
C577        C578   1.401       .  A
C577        C582   1.508       .  S
C578        C579   1.403       .  A
C578        H583   1.084       .  S
C579        C580   1.417   1_556  A
C580        C584   1.507       .  S
C581        C586   1.409       .  A
C581        C590   1.399   1_554  A
C582        H598   1.110       .  S
C582        H599   1.109   1_546  S
C582        H600   1.111       .  S
C584        H595   1.111       .  S
C584        H596   1.110   1_554  S
C584        H597   1.107       .  S
C586        C587   1.403       .  A
C586        C591   1.507       .  S
C587        C588   1.408   1_554  A
C587        H592   1.084       .  S
C588        C589   1.423       .  A
C589        C590   1.407       .  A
C589        C593   1.508       .  S
C590        H594   1.084       .  S
C591        H601   1.111       .  S
C591        H602   1.110   1_565  S
C591        H603   1.110   1_565  S
C593        H604   1.111       .  S
C593        H605   1.110       .  S
C593        H606   1.110       .  S
C607        C608   1.400       .  A
C607        C612   1.409       .  A
C607        H617   1.085       .  S
C608        C613   1.478   1_455  S
C608        C609   1.406       .  A
C609        C610   1.397       .  A
C609        C614   1.509       .  S
C610        C611   1.410       .  A
C610        H615   1.084       .  S
C611        C612   1.423       .  A
C612        C616   1.507       .  S
C613        C618   1.410       .  A
C613        C622   1.400       .  A
C614        H630   1.110   1_455  S
C614        H631   1.109   1_455  S
C614        H632   1.111       .  S
C616        H627   1.110       .  S
C616        H628   1.111       .  S
C616        H629   1.110       .  S
C618        C619   1.404       .  A
C618        C623   1.506       .  S
C619        C620   1.403       .  A
C619        H624   1.085       .  S
C620        C621   1.417       .  A
C621        C622   1.401       .  A
C621        C625   1.509       .  S
C622        H626   1.084       .  S
C623        H633   1.111       .  S
C623        H634   1.111       .  S
C623        H635   1.110       .  S
C625        H636   1.110       .  S
C625        H637   1.107       .  S
C625        H638   1.111       .  S
C639        C640   1.399       .  A
C639        C644   1.404       .  A
C639        H649   1.084       .  S
C640        C645   1.486       .  S
C640        C641   1.411       .  A
C641        C642   1.409       .  A
C641        C646   1.505       .  S
C642        C643   1.407       .  A
C642        H647   1.084       .  S
C643        C644   1.421       .  A
C644        C648   1.510       .  S
C645        C650   1.411       .  A
C645        C654   1.401       .  A
C646        H662   1.110       .  S
C646        H663   1.110       .  S
C646        H664   1.111       .  S
C648        H659   1.111       .  S
C648        H660   1.109       .  S
C648        H661   1.111       .  S
C650        C651   1.406       .  A
C650        C655   1.506       .  S
C651        C652   1.406       .  A
C651        H656   1.084       .  S
C652        C653   1.419       .  A
C653        C654   1.406       .  A
C653        C657   1.508       .  S
C654        H658   1.084       .  S
C655        H665   1.111       .  S
C655        H666   1.110       .  S
C655        H667   1.110       .  S
C657        H668   1.110       .  S
C657        H669   1.107       .  S
C657        H670   1.111       .  S
C671        C672   1.402   1_545  A
C671        C676   1.405       .  A
C671        H681   1.085       .  S
C672        C677   1.480       .  S
C672        C673   1.407       .  A
C673        C674   1.401       .  A
C673        C678   1.507       .  S
C674        C675   1.407   1_565  A
C674        H679   1.084       .  S
C675        C676   1.418       .  A
C676        C680   1.508       .  S
C677        C682   1.412       .  A
C677        C686   1.402       .  A
C678        H694   1.110       .  S
C678        H695   1.110       .  S
C678        H696   1.111       .  S
C680        H691   1.111       .  S
C680        H692   1.111       .  S
C680        H693   1.105       .  S
C682        C683   1.402       .  A
C682        C687   1.507       .  S
C683        C684   1.400       .  A
C683        H688   1.084       .  S
C684        C685   1.412       .  A
C685        C686   1.405       .  A
C685        C689   1.507   1_565  S
C686        H690   1.084   1_565  S
C687        H697   1.111       .  S
C687        H698   1.110       .  S
C687        H699   1.110       .  S
C689        H700   1.111       .  S
C689        H701   1.111       .  S
C689        H702   1.110   1_545  S
C703        C704   1.398       .  A
C703        C708   1.404       .  A
C703        H713   1.084       .  S
C704        C709   1.473   1_565  S
C704        C705   1.405   1_565  A
C705        C706   1.398       .  A
C705        C710   1.509       .  S
C706        C707   1.411   1_545  A
C706        H711   1.083       .  S
C707        C708   1.423       .  A
C708        C712   1.508       .  S
C709        C714   1.408   1_545  A
C709        C718   1.401       .  A
C710        H726   1.110       .  S
C710        H727   1.109       .  S
C710        H728   1.111       .  S
C712        H723   1.111       .  S
C712        H724   1.111       .  S
C712        H725   1.109       .  S
C714        C715   1.398       .  A
C714        C719   1.508       .  S
C715        C716   1.406   1_565  A
C715        H720   1.084       .  S
C716        C717   1.415       .  A
C717        C718   1.403       .  A
C717        C721   1.507       .  S
C718        H722   1.084       .  S
C719        H729   1.111       .  S
C719        H730   1.110       .  S
C719        H731   1.109       .  S
C721        H732   1.110       .  S
C721        H733   1.110       .  S
C721        H734   1.111       .  S
C735        C736   1.399   1_554  A
C735        C740   1.401       .  A
C735        H745   1.085       .  S
C736        C741   1.485   1_455  S
C736        C737   1.411       .  A
C737        C738   1.408       .  A
C737        C742   1.505       .  S
C738        C739   1.407       .  A
C738        H743   1.084       .  S
C739        C740   1.421   1_556  A
C740        C744   1.510       .  S
C741        C746   1.410   1_556  A
C741        C750   1.401       .  A
C742        H758   1.109       .  S
C742        H759   1.111   1_556  S
C742        H760   1.111       .  S
C744        H755   1.110       .  S
C744        H756   1.111       .  S
C744        H757   1.110   1_554  S
C746        C747   1.404       .  A
C746        C751   1.507       .  S
C747        C748   1.406   1_554  A
C747        H752   1.085       .  S
C748        C749   1.420       .  A
C749        C750   1.405       .  A
C749        C753   1.509       .  S
C750        H754   1.084       .  S
C751        H761   1.111       .  S
C751        H762   1.109       .  S
C751        H763   1.110       .  S
C753        H764   1.111       .  S
C753        H765   1.104       .  S
C753        H766   1.111       .  S
C767        C768   1.403       .  A
C767        C772   1.411       .  A
C767        H777   1.085       .  S
C768        C773   1.484       .  S
C768        C769   1.408       .  A
C769        C770   1.399       .  A
C769        C774   1.508   1_556  S
C770        C771   1.408       .  A
C770        H775   1.084   1_556  S
C771        C772   1.421       .  A
C772        C776   1.507       .  S
C773        C778   1.411   1_556  A
C773        C782   1.400       .  A
C774        H790   1.110   1_554  S
C774        H791   1.110       .  S
C774        H792   1.111       .  S
C776        H787   1.110   1_556  S
C776        H788   1.111       .  S
C776        H789   1.105       .  S
C778        C779   1.406       .  A
C778        C783   1.506       .  S
C779        C780   1.405   1_554  A
C779        H784   1.084       .  S
C780        C781   1.420       .  A
C781        C782   1.404       .  A
C781        C785   1.509       .  S
C782        H786   1.085       .  S
C783        H793   1.111       .  S
C783        H794   1.110       .  S
C783        H795   1.110       .  S
C785        H796   1.110       .  S
C785        H797   1.105       .  S
C785        H798   1.111       .  S
C799        C800   1.400       .  A
C799        C804   1.404       .  A
C799        H809   1.085       .  S
C800        C805   1.482       .  S
C800        C801   1.408       .  A
C801        C802   1.405       .  A
C801        C806   1.506       .  S
C802        C803   1.407       .  A
C802        H807   1.084       .  S
C803        C804   1.422       .  A
C804        C808   1.510       .  S
C805        C810   1.413       .  A
C805        C814   1.398       .  A
C806        H822   1.110       .  S
C806        H823   1.110       .  S
C806        H824   1.110       .  S
C808        H819   1.111       .  S
C808        H820   1.111       .  S
C808        H821   1.104       .  S
C810        C811   1.407       .  A
C810        C815   1.505       .  S
C811        C812   1.402       .  A
C811        H816   1.084       .  S
C812        C813   1.418       .  A
C813        C814   1.400       .  A
C813        C817   1.510       .  S
C814        H818   1.084       .  S
C815        H825   1.111       .  S
C815        H826   1.110       .  S
C815        H827   1.110       .  S
C817        H828   1.110       .  S
C817        H829   1.108       .  S
C817        H830   1.111       .  S
C831        C832   1.400       .  A
C831        C836   1.405       .  A
C831        H841   1.084       .  S
C832        C837   1.480       .  S
C832        C833   1.410       .  A
C833        C834   1.402       .  A
C833        C838   1.507       .  S
C834        C835   1.405       .  A
C834        H839   1.085       .  S
C835        C836   1.420       .  A
C836        C840   1.510       .  S
C837        C842   1.408       .  A
C837        C846   1.403       .  A
C838        H854   1.110       .  S
C838        H855   1.110       .  S
C838        H856   1.111       .  S
C840        H851   1.110       .  S
C840        H852   1.111       .  S
C840        H853   1.105       .  S
C842        C843   1.401       .  A
C842        C847   1.507       .  S
C843        C844   1.405       .  A
C843        H848   1.084       .  S
C844        C845   1.416       .  A
C845        C846   1.406       .  A
C845        C849   1.508       .  S
C846        H850   1.084       .  S
C847        H857   1.110       .  S
C847        H858   1.110       .  S
C847        H859   1.110       .  S
C849        H860   1.110       .  S
C849        H861   1.107       .  S
C849        H862   1.111       .  S
C863        C864   1.401       .  A
C863        C868   1.406       .  A
C863        H873   1.085       .  S
C864        C869   1.482       .  S
C864        C865   1.410       .  A
C865        C866   1.402       .  A
C865        C870   1.507       .  S
C866        C867   1.405       .  A
C866        H871   1.084       .  S
C867        C868   1.418       .  A
C868        C872   1.508       .  S
C869        C874   1.408       .  A
C869        C878   1.404       .  A
C870        H886   1.110       .  S
C870        H887   1.111       .  S
C870        H888   1.111       .  S
C872        H883   1.110       .  S
C872        H884   1.110       .  S
C872        H885   1.105       .  S
C874        C875   1.402   1_554  A
C874        C879   1.506       .  S
C875        C876   1.406       .  A
C875        H880   1.084       .  S
C876        C877   1.414       .  A
C877        C878   1.405   1_556  A
C877        C881   1.507       .  S
C878        H882   1.084       .  S
C879        H889   1.111       .  S
C879        H890   1.110       .  S
C879        H891   1.110       .  S
C881        H892   1.110       .  S
C881        H893   1.107       .  S
C881        H894   1.111       .  S
C895        C896   1.403       .  A
C895        C900   1.410       .  A
C895        H905   1.084       .  S
C896        C901   1.491       .  S
C896        C897   1.412       .  A
C897        C898   1.405       .  A
C897        C902   1.507       .  S
C898        C899   1.405       .  A
C898        H903   1.084       .  S
C899        C900   1.420       .  A
C900        C904   1.508       .  S
C901        C906   1.412       .  A
C901        C910   1.404       .  A
C902        H918   1.110       .  S
C902        H919   1.110       .  S
C902        H920   1.110       .  S
C904        H915   1.110       .  S
C904        H916   1.111       .  S
C904        H917   1.105       .  S
C906        C907   1.409       .  A
C906        C911   1.505       .  S
C907        C908   1.405       .  A
C907        H912   1.084       .  S
C908        C909   1.414       .  A
C909        C910   1.405       .  A
C909        C913   1.507       .  S
C910        H914   1.084       .  S
C911        H921   1.111       .  S
C911        H922   1.110       .  S
C911        H923   1.110       .  S
C913        H924   1.111       .  S
C913        H925   1.109       .  S
C913        H926   1.110       .  S
C927        C928   1.399       .  A
C927        C932   1.403       .  A
C927        H937   1.084       .  S
C928        C933   1.478       .  S
C928        C929   1.408       .  A
C929        C930   1.403       .  A
C929        C934   1.506       .  S
C930        C931   1.407       .  A
C930        H935   1.083       .  S
C931        C932   1.420       .  A
C932        C936   1.509       .  S
C933        C938   1.410       .  A
C933        C942   1.400       .  A
C934        H950   1.110       .  S
C934        H951   1.110       .  S
C934        H952   1.111       .  S
C936        H947   1.110       .  S
C936        H948   1.111       .  S
C936        H949   1.109       .  S
C938        C939   1.405       .  A
C938        C943   1.505       .  S
C939        C940   1.404       .  A
C939        H944   1.084       .  S
C940        C941   1.416       .  A
C941        C942   1.399       .  A
C941        C945   1.509       .  S
C942        H946   1.085       .  S
C943        H953   1.111       .  S
C943        H954   1.110       .  S
C943        H955   1.110       .  S
C945        H956   1.110       .  S
C945        H957   1.107       .  S
C945        H958   1.111       .  S
C959        C960   1.401       .  A
C959        C964   1.402       .  A
C959        H969   1.085       .  S
C960        C965   1.483       .  S
C960        C961   1.411       .  A
C961        C962   1.407       .  A
C961        C966   1.505       .  S
C962        C963   1.405       .  A
C962        H967   1.084       .  S
C963        C964   1.416       .  A
C964        C968   1.508       .  S
C965        C970   1.410       .  A
C965        C974   1.396       .  A
C966        H982   1.110       .  S
C966        H983   1.110       .  S
C966        H984   1.111       .  S
C968        H979   1.110       .  S
C968        H980   1.111       .  S
C968        H981   1.108       .  S
C970        C971   1.407       .  A
C970        C975   1.507       .  S
C971        C972   1.410       .  A
C971        H976   1.084       .  S
C972        C973   1.428       .  A
C973        C974   1.404       .  A
C973        C977   1.510       .  S
C974        H978   1.084       .  S
C975        H985   1.111   1_556  S
C975        H986   1.109       .  S
C975        H987   1.111       .  S
C977        H988   1.110       .  S
C977        H989   1.110       .  S
C977        H990   1.111       .  S
C991        C992   1.401       .  A
C991        C996   1.406       .  A
C991       H1001   1.084       .  S
C992        C997   1.480       .  S
C992        C993   1.411       .  A
C993        C994   1.403       .  A
C993        C998   1.507       .  S
C994        C995   1.405       .  A
C994        H999   1.084       .  S
C995        C996   1.417       .  A
C996       C1000   1.508       .  S
C997       C1002   1.409       .  A
C997       C1006   1.403       .  A
C998       H1014   1.110       .  S
C998       H1015   1.110       .  S
C998       H1016   1.111       .  S
C1000      H1011   1.111       .  S
C1000      H1012   1.111       .  S
C1000      H1013   1.109       .  S
C1002      C1003   1.402       .  A
C1002      C1007   1.507       .  S
C1003      C1004   1.405       .  A
C1003      H1008   1.086       .  S
C1004      C1005   1.413       .  A
C1005      C1006   1.406       .  A
C1005      C1009   1.506       .  S
C1006      H1010   1.085       .  S
C1007      H1017   1.111       .  S
C1007      H1018   1.110       .  S
C1007      H1019   1.110       .  S
C1009      H1020   1.110       .  S
C1009      H1021   1.111       .  S
C1009      H1022   1.111       .  S
C1023      C1024   1.401       .  A
C1023      C1028   1.404   1_554  A
C1023      H1033   1.085       .  S
C1024      C1029   1.482       .  S
C1024      C1025   1.411       .  A
C1025      C1026   1.402   1_554  A
C1025      C1030   1.507       .  S
C1026      C1027   1.402       .  A
C1026      H1031   1.084       .  S
C1027      C1028   1.420       .  A
C1028      C1032   1.510       .  S
C1029      C1034   1.410       .  A
C1029      C1038   1.404       .  A
C1030      H1046   1.110       .  S
C1030      H1047   1.110       .  S
C1030      H1048   1.111       .  S
C1032      H1043   1.110       .  S
C1032      H1044   1.111       .  S
C1032      H1045   1.106       .  S
C1034      C1035   1.401       .  A
C1034      C1039   1.507       .  S
C1035      C1036   1.403       .  A
C1035      H1040   1.085       .  S
C1036      C1037   1.414       .  A
C1037      C1038   1.405       .  A
C1037      C1041   1.507       .  S
C1038      H1042   1.085       .  S
C1039      H1049   1.111       .  S
C1039      H1050   1.110       .  S
C1039      H1051   1.110       .  S
C1041      H1052   1.110       .  S
C1041      H1053   1.108       .  S
C1041      H1054   1.111       .  S
C1055      C1056   1.401       .  A
C1055      C1060   1.405       .  A
C1055      H1065   1.085       .  S
C1056      C1061   1.484       .  S
C1056      C1057   1.411       .  A
C1057      C1058   1.405       .  A
C1057      C1062   1.507       .  S
C1058      C1059   1.406       .  A
C1058      H1063   1.084       .  S
C1059      C1060   1.419       .  A
C1060      C1064   1.508       .  S
C1061      C1066   1.410       .  A
C1061      C1070   1.398       .  A
C1062      H1078   1.110       .  S
C1062      H1079   1.109       .  S
C1062      H1080   1.111       .  S
C1064      H1075   1.111       .  S
C1064      H1076   1.111       .  S
C1064      H1077   1.107       .  S
C1066      C1067   1.408       .  A
C1066      C1071   1.506       .  S
C1067      C1068   1.409       .  A
C1067      H1072   1.084       .  S
C1068      C1069   1.423       .  A
C1069      C1070   1.403       .  A
C1069      C1073   1.510       .  S
C1070      H1074   1.084       .  S
C1071      H1081   1.111       .  S
C1071      H1082   1.110       .  S
C1071      H1083   1.109       .  S
C1073      H1084   1.110       .  S
C1073      H1085   1.110       .  S
C1073      H1086   1.111       .  S
C1087      C1088   1.404       .  A
C1087      C1092   1.404       .  A
C1087      H1097   1.084       .  S
C1088      C1093   1.495       .  S
C1088      C1089   1.414       .  A
C1089      C1090   1.410       .  A
C1089      C1094   1.505       .  S
C1090      C1091   1.405       .  A
C1090      H1095   1.084       .  S
C1091      C1092   1.414       .  A
C1092      C1096   1.507       .  S
C1093      C1098   1.415       .  A
C1093      C1102   1.405       .  A
C1094      H1110   1.110       .  S
C1094      H1111   1.110       .  S
C1094      H1112   1.111       .  S
C1096      H1107   1.110       .  S
C1096      H1108   1.111       .  S
C1096      H1109   1.109       .  S
C1098      C1099   1.405       .  A
C1098      C1103   1.508       .  S
C1099      C1100   1.405       .  A
C1099      H1104   1.085       .  S
C1100      C1101   1.417       .  A
C1101      C1102   1.411       .  A
C1101      C1105   1.506       .  S
C1102      H1106   1.084       .  S
C1103      H1113   1.111       .  S
C1103      H1114   1.109       .  S
C1103      H1115   1.111       .  S
C1105      H1116   1.110       .  S
C1105      H1117   1.111       .  S
C1105      H1118   1.110       .  S
C1119      C1120   1.402       .  A
C1119      C1124   1.403       .  A
C1119      H1129   1.085       .  S
C1120      C1125   1.485       .  S
C1120      C1121   1.411       .  A
C1121      C1122   1.407       .  A
C1121      C1126   1.505       .  S
C1122      C1123   1.405       .  A
C1122      H1127   1.085       .  S
C1123      C1124   1.414       .  A
C1124      C1128   1.508       .  S
C1125      C1130   1.409       .  A
C1125      C1134   1.399       .  A
C1126      H1142   1.109       .  S
C1126      H1143   1.111       .  S
C1126      H1144   1.111       .  S
C1128      H1139   1.110       .  S
C1128      H1140   1.111       .  S
C1128      H1141   1.110       .  S
C1130      C1131   1.403       .  A
C1130      C1135   1.507       .  S
C1131      C1132   1.411       .  A
C1131      H1136   1.082       .  S
C1132      C1133   1.426       .  A
C1133      C1134   1.408       .  A
C1133      C1137   1.508       .  S
C1134      H1138   1.087       .  S
C1135      H1145   1.111   1_556  S
C1135      H1146   1.110       .  S
C1135      H1147   1.110       .  S
C1137      H1148   1.112       .  S
C1137      H1149   1.109       .  S
C1137      H1150   1.110       .  S
C1151      C1152   1.398       .  A
C1151      C1156   1.399       .  A
C1151      H1161   1.085       .  S
C1152      C1157   1.480       .  S
C1152      C1153   1.410       .  A
C1153      C1154   1.407       .  A
C1153      C1158   1.505       .  S
C1154      C1155   1.406       .  A
C1154      H1159   1.084       .  S
C1155      C1156   1.419       .  A
C1156      C1160   1.510       .  S
C1157      C1162   1.409       .  A
C1157      C1166   1.400       .  A
C1158      H1174   1.110       .  S
C1158      H1175   1.110       .  S
C1158      H1176   1.111       .  S
C1160      H1171   1.111       .  S
C1160      H1172   1.110       .  S
C1160      H1173   1.106       .  S
C1162      C1163   1.402       .  A
C1162      C1167   1.507       .  S
C1163      C1164   1.406       .  A
C1163      H1168   1.084       .  S
C1164      C1165   1.420       .  A
C1165      C1166   1.406       .  A
C1165      C1169   1.508       .  S
C1166      H1170   1.084       .  S
C1167      H1177   1.111       .  S
C1167      H1178   1.110       .  S
C1167      H1179   1.110       .  S
C1169      H1180   1.109       .  S
C1169      H1181   1.110       .  S
C1169      H1182   1.111       .  S
C1183      C1184   1.400       .  A
C1183      C1188   1.405       .  A
C1183      H1193   1.084       .  S
C1184      C1189   1.478       .  S
C1184      C1185   1.408       .  A
C1185      C1186   1.402       .  A
C1185      C1190   1.507       .  S
C1186      C1187   1.408       .  A
C1186      H1191   1.084       .  S
C1187      C1188   1.420       .  A
C1188      C1192   1.508       .  S
C1189      C1194   1.410       .  A
C1189      C1198   1.399       .  A
C1190      H1206   1.110       .  S
C1190      H1207   1.111       .  S
C1190      H1208   1.111       .  S
C1192      H1203   1.111       .  S
C1192      H1204   1.111       .  S
C1192      H1205   1.109       .  S
C1194      C1195   1.406       .  A
C1194      C1199   1.505       .  S
C1195      C1196   1.405       .  A
C1195      H1200   1.084       .  S
C1196      C1197   1.417       .  A
C1197      C1198   1.399       .  A
C1197      C1201   1.509       .  S
C1198      H1202   1.085       .  S
C1199      H1209   1.111       .  S
C1199      H1210   1.110       .  S
C1199      H1211   1.110       .  S
C1201      H1212   1.111       .  S
C1201      H1213   1.107       .  S
C1201      H1214   1.111       .  S
C1215      C1216   1.400       .  A
C1215      C1220   1.407       .  A
C1215      H1225   1.084       .  S
C1216      C1221   1.479       .  S
C1216      C1217   1.408       .  A
C1217      C1218   1.400       .  A
C1217      C1222   1.507       .  S
C1218      C1219   1.407       .  A
C1218      H1223   1.084       .  S
C1219      C1220   1.420       .  A
C1220      C1224   1.508       .  S
C1221      C1226   1.407       .  A
C1221      C1230   1.403       .  A
C1222      H1238   1.110       .  S
C1222      H1239   1.110       .  S
C1222      H1240   1.111       .  S
C1224      H1235   1.111       .  S
C1224      H1236   1.111       .  S
C1224      H1237   1.109       .  S
C1226      C1227   1.398       .  A
C1226      C1231   1.508       .  S
C1227      C1228   1.408       .  A
C1227      H1232   1.084       .  S
C1228      C1229   1.417       .  A
C1229      C1230   1.408       .  A
C1229      C1233   1.506       .  S
C1230      H1234   1.084       .  S
C1231      H1241   1.111       .  S
C1231      H1242   1.110       .  S
C1231      H1243   1.111       .  S
C1233      H1244   1.110       .  S
C1233      H1245   1.111       .  S
C1233      H1246   1.111       .  S
C1247      C1248   1.398       .  A
C1247      C1252   1.398       .  A
C1247      H1257   1.085       .  S
C1248      C1253   1.479       .  S
C1248      C1249   1.412       .  A
C1249      C1250   1.407       .  A
C1249      C1254   1.505       .  S
C1250      C1251   1.402       .  A
C1250      H1255   1.084       .  S
C1251      C1252   1.418       .  A
C1252      C1256   1.510       .  S
C1253      C1258   1.409       .  A
C1253      C1262   1.400       .  A
C1254      H1270   1.110       .  S
C1254      H1271   1.110       .  S
C1254      H1272   1.111       .  S
C1256      H1267   1.110       .  S
C1256      H1268   1.111       .  S
C1256      H1269   1.107       .  S
C1258      C1259   1.402   1_554  A
C1258      C1263   1.507       .  S
C1259      C1260   1.406       .  A
C1259      H1264   1.084       .  S
C1260      C1261   1.418   1_556  A
C1261      C1262   1.403       .  A
C1261      C1265   1.509   1_554  S
C1262      H1266   1.085       .  S
C1263      H1273   1.111       .  S
C1263      H1274   1.110       .  S
C1263      H1275   1.111       .  S
C1265      H1276   1.110   1_556  S
C1265      H1277   1.107       .  S
C1265      H1278   1.111       .  S
C1279      C1280   1.397       .  A
C1279      C1284   1.400       .  A
C1279      H1289   1.085       .  S
C1280      C1285   1.484       .  S
C1280      C1281   1.410       .  A
C1281      C1282   1.411       .  A
C1281      C1286   1.505       .  S
C1282      C1283   1.409       .  A
C1282      H1287   1.084       .  S
C1283      C1284   1.424       .  A
C1284      C1288   1.511       .  S
C1285      C1290   1.414       .  A
C1285      C1294   1.399       .  A
C1286      H1302   1.110       .  S
C1286      H1303   1.110       .  S
C1286      H1304   1.111       .  S
C1288      H1299   1.110       .  S
C1288      H1300   1.111       .  S
C1288      H1301   1.110       .  S
C1290      C1291   1.408       .  A
C1290      C1295   1.506       .  S
C1291      C1292   1.403       .  A
C1291      H1296   1.084       .  S
C1292      C1293   1.418       .  A
C1293      C1294   1.403       .  A
C1293      C1297   1.510       .  S
C1294      H1298   1.085       .  S
C1295      H1305   1.111       .  S
C1295      H1306   1.110       .  S
C1295      H1307   1.110       .  S
C1297      H1308   1.110       .  S
C1297      H1309   1.108       .  S
C1297      H1310   1.111       .  S
C1311      C1312   1.397       .  A
C1311      C1316   1.404       .  A
C1311      H1321   1.083       .  S
C1312      C1317   1.481       .  S
C1312      C1313   1.408       .  A
C1313      C1314   1.405       .  A
C1313      C1318   1.506       .  S
C1314      C1315   1.411       .  A
C1314      H1319   1.083       .  S
C1315      C1316   1.425       .  A
C1316      C1320   1.509       .  S
C1317      C1322   1.411       .  A
C1317      C1326   1.400       .  A
C1318      H1334   1.110       .  S
C1318      H1335   1.111       .  S
C1318      H1336   1.111       .  S
C1320      H1331   1.110       .  S
C1320      H1332   1.111       .  S
C1320      H1333   1.110       .  S
C1322      C1323   1.407       .  A
C1322      C1327   1.505       .  S
C1323      C1324   1.403       .  A
C1323      H1328   1.084       .  S
C1324      C1325   1.416       .  A
C1325      C1326   1.400       .  A
C1325      C1329   1.510       .  S
C1326      H1330   1.085       .  S
C1327      H1337   1.111       .  S
C1327      H1338   1.111       .  S
C1327      H1339   1.109       .  S
C1329      H1340   1.111       .  S
C1329      H1341   1.108       .  S
C1329      H1342   1.110       .  S
C1343      C1344   1.403       .  A
C1343      C1348   1.406       .  A
C1343      H1353   1.084       .  S
C1344      C1349   1.483       .  S
C1344      C1345   1.411       .  A
C1345      C1346   1.400       .  A
C1345      C1350   1.508       .  S
C1346      C1347   1.403       .  A
C1346      H1351   1.084       .  S
C1347      C1348   1.417       .  A
C1348      C1352   1.507       .  S
C1349      C1354   1.411       .  A
C1349      C1358   1.400       .  A
C1350      H1366   1.109       .  S
C1350      H1367   1.110       .  S
C1350      H1368   1.111       .  S
C1352      H1363   1.110       .  S
C1352      H1364   1.111       .  S
C1352      H1365   1.107       .  S
C1354      C1355   1.406       .  A
C1354      C1359   1.506       .  S
C1355      C1356   1.406       .  A
C1355      H1360   1.084       .  S
C1356      C1357   1.419       .  A
C1357      C1358   1.402       .  A
C1357      C1361   1.509       .  S
C1358      H1362   1.085       .  S
C1359      H1369   1.111       .  S
C1359      H1370   1.110       .  S
C1359      H1371   1.110       .  S
C1361      H1372   1.110       .  S
C1361      H1373   1.106       .  S
C1361      H1374   1.111       .  S
C1375      C1376   1.399       .  A
C1375      C1380   1.402       .  A
C1375      H1385   1.085       .  S
C1376      C1381   1.479       .  S
C1376      C1377   1.409       .  A
C1377      C1378   1.404       .  A
C1377      C1382   1.506       .  S
C1378      C1379   1.404       .  A
C1378      H1383   1.084       .  S
C1379      C1380   1.419       .  A
C1380      C1384   1.510       .  S
C1381      C1386   1.412       .  A
C1381      C1390   1.395       .  A
C1382      H1398   1.111       .  S
C1382      H1399   1.110       .  S
C1382      H1400   1.110       .  S
C1384      H1395   1.110       .  S
C1384      H1396   1.110       .  S
C1384      H1397   1.105       .  S
C1386      C1387   1.407       .  A
C1386      C1391   1.506       .  S
C1387      C1388   1.405       .  A
C1387      H1392   1.084       .  S
C1388      C1389   1.423       .  A
C1389      C1390   1.400       .  A
C1389      C1393   1.511       .  S
C1390      H1394   1.084       .  S
C1391      H1401   1.111       .  S
C1391      H1402   1.110       .  S
C1391      H1403   1.110       .  S
C1393      H1404   1.111       .  S
C1393      H1405   1.109       .  S
C1393      H1406   1.111       .  S
C1407      C1408   1.401       .  A
C1407      C1412   1.405       .  A
C1407      H1417   1.084       .  S
C1408      C1413   1.477       .  S
C1408      C1409   1.405       .  A
C1409      C1410   1.401       .  A
C1409      C1414   1.507       .  S
C1410      C1411   1.411       .  A
C1410      H1415   1.085       .  S
C1411      C1412   1.419       .  A
C1412      C1416   1.507       .  S
C1413      C1418   1.408       .  A
C1413      C1422   1.402       .  A
C1414      H1430   1.109       .  S
C1414      H1431   1.110       .  S
C1414      H1432   1.111       .  S
C1416      H1427   1.111       .  S
C1416      H1428   1.110       .  S
C1416      H1429   1.110       .  S
C1418      C1419   1.398       .  A
C1418      C1423   1.508       .  S
C1419      C1420   1.404       .  A
C1419      H1424   1.085       .  S
C1420      C1421   1.418       .  A
C1421      C1422   1.406       .  A
C1421      C1425   1.508       .  S
C1422      H1426   1.084       .  S
C1423      H1433   1.111       .  S
C1423      H1434   1.110       .  S
C1423      H1435   1.109       .  S
C1425      H1436   1.111       .  S
C1425      H1437   1.105       .  S
C1425      H1438   1.110       .  S
C1439      C1440   1.399       .  A
C1439      C1444   1.401       .  A
C1439      H1449   1.084       .  S
C1440      C1445   1.480       .  S
C1440      C1441   1.411       .  A
C1441      C1442   1.404       .  A
C1441      C1446   1.507       .  S
C1442      C1443   1.406       .  A
C1442      H1447   1.084       .  S
C1443      C1444   1.420       .  A
C1444      C1448   1.509       .  S
C1445      C1450   1.413       .  A
C1445      C1454   1.399       .  A
C1446      H1462   1.110       .  S
C1446      H1463   1.110       .  S
C1446      H1464   1.110       .  S
C1448      H1459   1.110       .  S
C1448      H1460   1.110       .  S
C1448      H1461   1.110       .  S
C1450      C1451   1.405       .  A
C1450      C1455   1.507       .  S
C1451      C1452   1.402       .  A
C1451      H1456   1.084       .  S
C1452      C1453   1.416       .  A
C1453      C1454   1.400       .  A
C1453      C1457   1.509       .  S
C1454      H1458   1.084       .  S
C1455      H1465   1.111       .  S
C1455      H1466   1.110       .  S
C1455      H1467   1.110       .  S
C1457      H1468   1.108   1_556  S
C1457      H1469   1.112   1_556  S
C1457      H1470   1.111       .  S
C1471      C1472   1.397       .  A
C1471      C1476   1.399       .  A
C1471      H1481   1.085       .  S
C1472      C1477   1.479       .  S
C1472      C1473   1.412       .  A
C1473      C1474   1.407       .  A
C1473      C1478   1.505       .  S
C1474      C1475   1.402       .  A
C1474      H1479   1.084       .  S
C1475      C1476   1.419       .  A
C1476      C1480   1.511       .  S
C1477      C1482   1.410       .  A
C1477      C1486   1.401       .  A
C1478      H1494   1.110       .  S
C1478      H1495   1.110       .  S
C1478      H1496   1.111       .  S
C1480      H1491   1.110       .  S
C1480      H1492   1.111       .  S
C1480      H1493   1.107       .  S
C1482      C1483   1.403       .  A
C1482      C1487   1.506       .  S
C1483      C1484   1.404       .  A
C1483      H1488   1.084       .  S
C1484      C1485   1.416       .  A
C1485      C1486   1.403       .  A
C1485      C1489   1.508       .  S
C1486      H1490   1.085       .  S
C1487      H1497   1.110       .  S
C1487      H1498   1.110       .  S
C1487      H1499   1.111       .  S
C1489      H1500   1.111       .  S
C1489      H1501   1.108       .  S
C1489      H1502   1.110       .  S
C1503      C1504   1.401       .  A
C1503      C1508   1.410       .  A
C1503      H1513   1.080       .  S
C1504      C1509   1.487       .  S
C1504      C1505   1.407       .  A
C1505      C1506   1.404       .  A
C1505      C1510   1.507       .  S
C1506      C1507   1.413       .  A
C1506      H1511   1.081       .  S
C1507      C1508   1.425       .  A
C1508      C1512   1.507       .  S
C1509      C1514   1.409       .  A
C1509      C1518   1.399       .  A
C1510      H1526   1.110       .  S
C1510      H1527   1.110       .  S
C1510      H1528   1.111       .  S
C1512      H1523   1.110       .  S
C1512      H1524   1.110       .  S
C1512      H1525   1.111       .  S
C1514      C1515   1.406       .  A
C1514      C1519   1.506       .  S
C1515      C1516   1.410       .  A
C1515      H1520   1.084       .  S
C1516      C1517   1.425       .  A
C1517      C1518   1.407       .  A
C1517      C1521   1.509       .  S
C1518      H1522   1.086       .  S
C1519      H1529   1.111       .  S
C1519      H1530   1.110       .  S
C1519      H1531   1.110       .  S
C1521      H1532   1.110       .  S
C1521      H1533   1.109       .  S
C1521      H1534   1.111       .  S
C1535      C1536   1.403       .  A
C1535      C1540   1.406       .  A
C1535      H1545   1.085       .  S
C1536      C1541   1.489       .  S
C1536      C1537   1.411       .  A
C1537      C1538   1.408       .  A
C1537      C1542   1.505       .  S
C1538      C1539   1.405       .  A
C1538      H1543   1.084       .  S
C1539      C1540   1.414       .  A
C1540      C1544   1.507       .  S
C1541      C1546   1.412       .  A
C1541      C1550   1.403       .  A
C1542      H1558   1.110       .  S
C1542      H1559   1.110       .  S
C1542      H1560   1.111       .  S
C1544      H1555   1.110       .  S
C1544      H1556   1.111       .  S
C1544      H1557   1.109       .  S
C1546      C1547   1.404       .  A
C1546      C1551   1.507       .  S
C1547      C1548   1.403       .  A
C1547      H1552   1.085   1_554  S
C1548      C1549   1.418       .  A
C1549      C1550   1.409       .  A
C1549      C1553   1.507       .  S
C1550      H1554   1.084       .  S
C1551      H1561   1.111       .  S
C1551      H1562   1.110       .  S
C1551      H1563   1.110       .  S
C1553      H1564   1.111       .  S
C1553      H1565   1.107       .  S
C1553      H1566   1.110       .  S
C1567      C1568   1.399       .  A
C1567      C1572   1.402       .  A
C1567      H1577   1.084       .  S
C1568      C1573   1.472       .  S
C1568      C1569   1.409       .  A
C1569      C1570   1.399       .  A
C1569      C1574   1.508       .  S
C1570      C1571   1.404       .  A
C1570      H1575   1.085       .  S
C1571      C1572   1.417       .  A
C1572      C1576   1.508       .  S
C1573      C1578   1.409       .  A
C1573      C1582   1.399       .  A
C1574      H1590   1.110       .  S
C1574      H1591   1.110       .  S
C1574      H1592   1.111       .  S
C1576      H1587   1.110       .  S
C1576      H1588   1.110       .  S
C1576      H1589   1.106       .  S
C1578      C1579   1.402       .  A
C1578      C1583   1.506       .  S
C1579      C1580   1.403       .  A
C1579      H1584   1.084       .  S
C1580      C1581   1.417       .  A
C1581      C1582   1.399       .  A
C1581      C1585   1.508       .  S
C1582      H1586   1.085       .  S
C1583      H1593   1.111       .  S
C1583      H1594   1.110       .  S
C1583      H1595   1.111       .  S
C1585      H1596   1.111       .  S
C1585      H1597   1.108       .  S
C1585      H1598   1.111       .  S
C1599      C1600   1.401       .  A
C1599      C1604   1.407       .  A
C1599      H1609   1.084   1_545  S
C1600      C1605   1.482   1_545  S
C1600      C1601   1.406       .  A
C1601      C1602   1.400       .  A
C1601      C1606   1.507       .  S
C1602      C1603   1.412       .  A
C1602      H1607   1.083       .  S
C1603      C1604   1.423       .  A
C1604      C1608   1.508       .  S
C1605      C1610   1.411       .  A
C1605      C1614   1.398       .  A
C1606      H1622   1.110       .  S
C1606      H1623   1.110       .  S
C1606      H1624   1.111       .  S
C1608      H1619   1.110       .  S
C1608      H1620   1.111       .  S
C1608      H1621   1.110       .  S
C1610      C1611   1.404       .  A
C1610      C1615   1.507   1_565  S
C1611      C1612   1.406       .  A
C1611      H1616   1.084       .  S
C1612      C1613   1.422       .  A
C1613      C1614   1.402       .  A
C1613      C1617   1.508       .  S
C1614      H1618   1.085       .  S
C1615      H1625   1.111   1_545  S
C1615      H1626   1.109       .  S
C1615      H1627   1.111       .  S
C1617      H1628   1.111       .  S
C1617      H1629   1.107       .  S
C1617      H1630   1.111       .  S
C1631      C1632   1.400       .  A
C1631      C1636   1.405       .  A
C1631      H1641   1.084       .  S
C1632      C1637   1.478       .  S
C1632      C1633   1.410       .  A
C1633      C1634   1.401       .  A
C1633      C1638   1.508       .  S
C1634      C1635   1.405       .  A
C1634      H1639   1.082       .  S
C1635      C1636   1.420       .  A
C1636      C1640   1.509       .  S
C1637      C1642   1.406       .  A
C1637      C1646   1.401       .  A
C1638      H1654   1.111       .  S
C1638      H1655   1.110       .  S
C1638      H1656   1.110       .  S
C1640      H1651   1.110       .  S
C1640      H1652   1.111       .  S
C1640      H1653   1.105       .  S
C1642      C1643   1.400       .  A
C1642      C1647   1.507       .  S
C1643      C1644   1.409       .  A
C1643      H1648   1.085       .  S
C1644      C1645   1.419       .  A
C1645      C1646   1.406       .  A
C1645      C1649   1.508       .  S
C1646      H1650   1.084       .  S
C1647      H1657   1.111       .  S
C1647      H1658   1.110       .  S
C1647      H1659   1.110       .  S
C1649      H1660   1.111       .  S
C1649      H1661   1.109       .  S
C1649      H1662   1.111       .  S
C1663      C1664   1.399       .  A
C1663      C1668   1.403       .  A
C1663      H1673   1.085       .  S
C1664      C1669   1.478       .  S
C1664      C1665   1.409       .  A
C1665      C1666   1.402       .  A
C1665      C1670   1.506       .  S
C1666      C1667   1.406   1_556  A
C1666      H1671   1.084   1_556  S
C1667      C1668   1.421   1_554  A
C1668      C1672   1.509       .  S
C1669      C1674   1.411       .  A
C1669      C1678   1.397       .  A
C1670      H1686   1.111       .  S
C1670      H1687   1.110       .  S
C1670      H1688   1.110       .  S
C1672      H1683   1.111       .  S
C1672      H1684   1.110       .  S
C1672      H1685   1.107   1_556  S
C1674      C1675   1.406       .  A
C1674      C1679   1.505       .  S
C1675      C1676   1.404       .  A
C1675      H1680   1.084       .  S
C1676      C1677   1.421       .  A
C1677      C1678   1.399       .  A
C1677      C1681   1.511       .  S
C1678      H1682   1.085       .  S
C1679      H1689   1.111       .  S
C1679      H1690   1.110       .  S
C1679      H1691   1.110       .  S
C1681      H1692   1.111       .  S
C1681      H1693   1.106       .  S
C1681      H1694   1.110       .  S
C1695      C1696   1.403       .  A
C1695      C1700   1.404       .  A
C1695      H1705   1.085       .  S
C1696      C1701   1.479       .  S
C1696      C1697   1.409       .  A
C1697      C1698   1.400       .  A
C1697      C1702   1.507       .  S
C1698      C1699   1.404       .  A
C1698      H1703   1.085       .  S
C1699      C1700   1.414       .  A
C1700      C1704   1.507       .  S
C1701      C1706   1.411       .  A
C1701      C1710   1.400       .  A
C1702      H1718   1.110       .  S
C1702      H1719   1.110       .  S
C1702      H1720   1.111       .  S
C1704      H1715   1.111       .  S
C1704      H1716   1.110       .  S
C1704      H1717   1.107       .  S
C1706      C1707   1.402       .  A
C1706      C1711   1.507       .  S
C1707      C1708   1.404       .  A
C1707      H1712   1.084       .  S
C1708      C1709   1.420       .  A
C1709      C1710   1.402       .  A
C1709      C1713   1.510       .  S
C1710      H1714   1.085       .  S
C1711      H1721   1.111       .  S
C1711      H1722   1.110       .  S
C1711      H1723   1.110       .  S
C1713      H1724   1.111       .  S
C1713      H1725   1.105       .  S
C1713      H1726   1.110       .  S
C1727      C1728   1.398       .  A
C1727      C1732   1.400       .  A
C1727      H1737   1.085       .  S
C1728      C1733   1.483       .  S
C1728      C1729   1.412       .  A
C1729      C1730   1.409       .  A
C1729      C1734   1.505       .  S
C1730      C1731   1.406       .  A
C1730      H1735   1.084       .  S
C1731      C1732   1.421       .  A
C1732      C1736   1.511       .  S
C1733      C1738   1.410       .  A
C1733      C1742   1.402       .  A
C1734      H1750   1.110       .  S
C1734      H1751   1.111       .  S
C1734      H1752   1.111       .  S
C1736      H1747   1.111       .  S
C1736      H1748   1.111       .  S
C1736      H1749   1.106       .  S
C1738      C1739   1.404       .  A
C1738      C1743   1.507       .  S
C1739      C1740   1.405       .  A
C1739      H1744   1.084       .  S
C1740      C1741   1.417       .  A
C1741      C1742   1.405       .  A
C1741      C1745   1.507       .  S
C1742      H1746   1.085       .  S
C1743      H1753   1.111       .  S
C1743      H1754   1.110       .  S
C1743      H1755   1.110       .  S
C1745      H1756   1.110       .  S
C1745      H1757   1.107       .  S
C1745      H1758   1.111       .  S
C1759      C1760   1.403       .  A
C1759      C1764   1.410       .  A
C1759      H1769   1.085   1_545  S
C1760      C1765   1.487   1_545  S
C1760      C1761   1.407       .  A
C1761      C1762   1.401       .  A
C1761      C1766   1.508       .  S
C1762      C1763   1.412       .  A
C1762      H1767   1.084       .  S
C1763      C1764   1.423       .  A
C1764      C1768   1.507       .  S
C1765      C1770   1.411       .  A
C1765      C1774   1.400       .  A
C1766      H1782   1.110       .  S
C1766      H1783   1.110       .  S
C1766      H1784   1.110       .  S
C1768      H1779   1.110       .  S
C1768      H1780   1.111       .  S
C1768      H1781   1.110       .  S
C1770      C1771   1.405       .  A
C1770      C1775   1.507       .  S
C1771      C1772   1.408       .  A
C1771      H1776   1.083       .  S
C1772      C1773   1.424       .  A
C1773      C1774   1.406       .  A
C1773      C1777   1.509       .  S
C1774      H1778   1.084       .  S
C1775      H1785   1.110       .  S
C1775      H1786   1.110   1_565  S
C1775      H1787   1.110   1_565  S
C1777      H1788   1.109       .  S
C1777      H1789   1.110       .  S
C1777      H1790   1.111       .  S
C1791      C1792   1.400       .  A
C1791      C1796   1.402       .  A
C1791      H1801   1.084       .  S
C1792      C1797   1.485       .  S
C1792      C1793   1.414       .  A
C1793      C1794   1.409       .  A
C1793      C1798   1.506       .  S
C1794      C1795   1.403       .  A
C1794      H1799   1.084       .  S
C1795      C1796   1.417       .  A
C1796      C1800   1.509       .  S
C1797      C1802   1.411       .  A
C1797      C1806   1.399       .  A
C1798      H1814   1.110       .  S
C1798      H1815   1.110       .  S
C1798      H1816   1.111       .  S
C1800      H1811   1.111       .  S
C1800      H1812   1.110       .  S
C1800      H1813   1.108       .  S
C1802      C1803   1.410       .  A
C1802      C1807   1.505       .  S
C1803      C1804   1.407       .  A
C1803      H1808   1.084       .  S
C1804      C1805   1.420       .  A
C1805      C1806   1.401       .  A
C1805      C1809   1.509       .  S
C1806      H1810   1.085       .  S
C1807      H1817   1.111       .  S
C1807      H1818   1.110       .  S
C1807      H1819   1.109       .  S
C1809      H1820   1.111   1_554  S
C1809      H1821   1.107   1_554  S
C1809      H1822   1.111       .  S
C1823      C1824   1.400       .  A
C1823      C1828   1.405       .  A
C1823      H1833   1.085       .  S
C1824      C1829   1.481       .  S
C1824      C1825   1.410       .  A
C1825      C1826   1.402       .  A
C1825      C1830   1.508       .  S
C1826      C1827   1.405       .  A
C1826      H1831   1.084       .  S
C1827      C1828   1.420       .  A
C1828      C1832   1.509       .  S
C1829      C1834   1.407       .  A
C1829      C1838   1.402       .  A
C1830      H1846   1.110       .  S
C1830      H1847   1.109       .  S
C1830      H1848   1.110       .  S
C1832      H1843   1.110       .  S
C1832      H1844   1.111       .  S
C1832      H1845   1.104       .  S
C1834      C1835   1.402       .  A
C1834      C1839   1.507       .  S
C1835      C1836   1.412       .  A
C1835      H1840   1.083       .  S
C1836      C1837   1.419       .  A
C1837      C1838   1.406       .  A
C1837      C1841   1.507       .  S
C1838      H1842   1.084       .  S
C1839      H1849   1.111       .  S
C1839      H1850   1.110       .  S
C1839      H1851   1.109       .  S
C1841      H1852   1.111       .  S
C1841      H1853   1.110       .  S
C1841      H1854   1.109       .  S
C1855      C1856   1.399       .  A
C1855      C1860   1.402       .  A
C1855      H1865   1.085       .  S
C1856      C1861   1.479       .  S
C1856      C1857   1.410       .  A
C1857      C1858   1.404       .  A
C1857      C1862   1.506       .  S
C1858      C1859   1.405       .  A
C1858      H1863   1.084       .  S
C1859      C1860   1.420       .  A
C1860      C1864   1.510       .  S
C1861      C1866   1.409       .  A
C1861      C1870   1.401       .  A
C1862      H1878   1.110       .  S
C1862      H1879   1.110       .  S
C1862      H1880   1.111       .  S
C1864      H1875   1.111       .  S
C1864      H1876   1.110       .  S
C1864      H1877   1.105       .  S
C1866      C1867   1.399       .  A
C1866      C1871   1.508       .  S
C1867      C1868   1.405       .  A
C1867      H1872   1.085       .  S
C1868      C1869   1.419       .  A
C1869      C1870   1.407       .  A
C1869      C1873   1.508       .  S
C1870      H1874   1.084       .  S
C1871      H1881   1.111       .  S
C1871      H1882   1.110       .  S
C1871      H1883   1.110       .  S
C1873      H1884   1.111       .  S
C1873      H1885   1.106       .  S
C1873      H1886   1.110       .  S
C1887      C1888   1.400       .  A
C1887      C1892   1.405       .  A
C1887      H1897   1.084       .  S
C1888      C1893   1.483       .  S
C1888      C1889   1.412       .  A
C1889      C1890   1.401       .  A
C1889      C1894   1.508       .  S
C1890      C1891   1.406       .  A
C1890      H1895   1.084       .  S
C1891      C1892   1.422       .  A
C1892      C1896   1.508       .  S
C1893      C1898   1.413       .  A
C1893      C1902   1.401       .  A
C1894      H1910   1.109       .  S
C1894      H1911   1.110       .  S
C1894      H1912   1.111       .  S
C1896      H1907   1.111       .  S
C1896      H1908   1.111       .  S
C1896      H1909   1.109       .  S
C1898      C1899   1.404       .  A
C1898      C1903   1.507       .  S
C1899      C1900   1.404       .  A
C1899      H1904   1.085       .  S
C1900      C1901   1.416       .  A
C1901      C1902   1.402       .  A
C1901      C1905   1.508       .  S
C1902      H1906   1.085       .  S
C1903      H1913   1.111       .  S
C1903      H1914   1.109       .  S
C1903      H1915   1.110       .  S
C1905      H1916   1.111       .  S
C1905      H1917   1.109       .  S
C1905      H1918   1.110       .  S
C1919      C1920   1.400       .  A
C1919      C1924   1.404       .  A
C1919      H1929   1.084       .  S
C1920      C1925   1.479   1_455  S
C1920      C1921   1.410       .  A
C1921      C1922   1.401       .  A
C1921      C1926   1.507       .  S
C1922      C1923   1.404       .  A
C1922      H1927   1.084       .  S
C1923      C1924   1.419       .  A
C1924      C1928   1.508       .  S
C1925      C1930   1.405       .  A
C1925      C1934   1.402       .  A
C1926      H1942   1.110   1_455  S
C1926      H1943   1.110   1_455  S
C1926      H1944   1.111       .  S
C1928      H1939   1.111       .  S
C1928      H1940   1.110       .  S
C1928      H1941   1.108       .  S
C1930      C1931   1.400       .  A
C1930      C1935   1.507       .  S
C1931      C1932   1.412       .  A
C1931      H1936   1.083       .  S
C1932      C1933   1.420       .  A
C1933      C1934   1.408       .  A
C1933      C1937   1.507       .  S
C1934      H1938   1.083   1_655  S
C1935      H1945   1.111       .  S
C1935      H1946   1.110       .  S
C1935      H1947   1.110       .  S
C1937      H1948   1.111       .  S
C1937      H1949   1.111       .  S
C1937      H1950   1.109       .  S
C1951      C1952   1.403       .  A
C1951      C1956   1.406       .  A
C1951      H1961   1.084       .  S
C1952      C1957   1.484       .  S
C1952      C1953   1.411       .  A
C1953      C1954   1.402       .  A
C1953      C1958   1.507       .  S
C1954      C1955   1.405       .  A
C1954      H1959   1.084       .  S
C1955      C1956   1.416       .  A
C1956      C1960   1.507       .  S
C1957      C1962   1.411       .  A
C1957      C1966   1.403       .  A
C1958      H1974   1.110       .  S
C1958      H1975   1.110       .  S
C1958      H1976   1.111       .  S
C1960      H1971   1.110       .  S
C1960      H1972   1.111       .  S
C1960      H1973   1.111       .  S
C1962      C1963   1.403       .  A
C1962      C1967   1.507       .  S
C1963      C1964   1.404   1_556  A
C1963      H1968   1.085   1_556  S
C1964      C1965   1.415   1_554  A
C1965      C1966   1.404       .  A
C1965      C1969   1.508   1_556  S
C1966      H1970   1.086       .  S
C1967      H1977   1.111       .  S
C1967      H1978   1.111       .  S
C1967      H1979   1.109       .  S
C1969      H1980   1.110   1_554  S
C1969      H1981   1.107       .  S
C1969      H1982   1.111   1_554  S
C1983      C1984   1.398       .  A
C1983      C1988   1.400       .  A
C1983      H1993   1.084       .  S
C1984      C1989   1.480       .  S
C1984      C1985   1.412       .  A
C1985      C1986   1.407       .  A
C1985      C1990   1.506       .  S
C1986      C1987   1.403       .  A
C1986      H1991   1.084       .  S
C1987      C1988   1.418       .  A
C1988      C1992   1.510       .  S
C1989      C1994   1.409       .  A
C1989      C1998   1.400       .  A
C1990      H2006   1.110       .  S
C1990      H2007   1.111       .  S
C1990      H2008   1.111       .  S
C1992      H2003   1.111       .  S
C1992      H2004   1.110       .  S
C1992      H2005   1.108       .  S
C1994      C1995   1.406       .  A
C1994      C1999   1.506       .  S
C1995      C1996   1.408       .  A
C1995      H2000   1.084       .  S
C1996      C1997   1.417       .  A
C1997      C1998   1.401       .  A
C1997      C2001   1.508       .  S
C1998      H2002   1.085       .  S
C1999      H2009   1.111       .  S
C1999      H2010   1.110       .  S
C1999      H2011   1.110       .  S
C2001      H2012   1.110       .  S
C2001      H2013   1.107       .  S
C2001      H2014   1.110       .  S
C2015      C2016   1.400       .  A
C2015      C2020   1.404       .  A
C2015      H2025   1.084       .  S
C2016      C2021   1.488       .  S
C2016      C2017   1.414       .  A
C2017      C2018   1.410       .  A
C2017      C2022   1.506       .  S
C2018      C2019   1.404       .  A
C2018      H2023   1.084       .  S
C2019      C2020   1.418       .  A
C2020      C2024   1.509       .  S
C2021      C2026   1.412       .  A
C2021      C2030   1.399       .  A
C2022      H2038   1.111       .  S
C2022      H2039   1.109       .  S
C2022      H2040   1.111       .  S
C2024      H2035   1.110       .  S
C2024      H2036   1.111       .  S
C2024      H2037   1.109       .  S
C2026      C2027   1.411       .  A
C2026      C2031   1.505       .  S
C2027      C2028   1.407       .  A
C2027      H2032   1.084       .  S
C2028      C2029   1.420       .  A
C2029      C2030   1.403       .  A
C2029      C2033   1.509       .  S
C2030      H2034   1.085       .  S
C2031      H2041   1.111       .  S
C2031      H2042   1.110       .  S
C2031      H2043   1.110       .  S
C2033      H2044   1.110   1_554  S
C2033      H2045   1.107   1_554  S
C2033      H2046   1.111       .  S
C2047      C2048   1.401       .  A
C2047      C2052   1.402       .  A
C2047      H2057   1.085       .  S
C2048      C2053   1.489       .  S
C2048      C2049   1.412       .  A
C2049      C2050   1.411       .  A
C2049      C2054   1.505       .  S
C2050      C2051   1.406       .  A
C2050      H2055   1.084       .  S
C2051      C2052   1.417       .  A
C2052      C2056   1.508       .  S
C2053      C2058   1.410       .  A
C2053      C2062   1.402       .  A
C2054      H2070   1.110       .  S
C2054      H2071   1.111       .  S
C2054      H2072   1.111       .  S
C2056      H2067   1.110       .  S
C2056      H2068   1.111       .  S
C2056      H2069   1.106       .  S
C2058      C2059   1.404       .  A
C2058      C2063   1.507       .  S
C2059      C2060   1.409       .  A
C2059      H2064   1.084       .  S
C2060      C2061   1.422       .  A
C2061      C2062   1.411       .  A
C2061      C2065   1.507       .  S
C2062      H2066   1.084       .  S
C2063      H2073   1.111       .  S
C2063      H2074   1.110       .  S
C2063      H2075   1.110       .  S
C2065      H2076   1.111       .  S
C2065      H2077   1.110       .  S
C2065      H2078   1.110       .  S
C2079      C2080   1.400       .  A
C2079      C2084   1.400       .  A
C2079      H2089   1.086       .  S
C2080      C2085   1.481       .  S
C2080      C2081   1.412       .  A
C2081      C2082   1.406       .  A
C2081      C2086   1.505       .  S
C2082      C2083   1.402       .  A
C2082      H2087   1.079       .  S
C2083      C2084   1.415       .  A
C2084      C2088   1.507       .  S
C2085      C2090   1.408       .  A
C2085      C2094   1.399       .  A
C2086      H2102   1.110       .  S
C2086      H2103   1.111       .  S
C2086      H2104   1.109       .  S
C2088      H2099   1.111       .  S
C2088      H2100   1.109       .  S
C2088      H2101   1.108       .  S
C2090      C2091   1.405       .  A
C2090      C2095   1.506       .  S
C2091      C2092   1.411       .  A
C2091      H2096   1.079       .  S
C2092      C2093   1.423       .  A
C2093      C2094   1.403       .  A
C2093      C2097   1.509       .  S
C2094      H2098   1.085       .  S
C2095      H2105   1.110       .  S
C2095      H2106   1.110       .  S
C2095      H2107   1.110       .  S
C2097      H2108   1.111       .  S
C2097      H2109   1.110       .  S
C2097      H2110   1.110       .  S
C2111      C2112   1.397       .  A
C2111      C2116   1.405       .  A
C2111      H2121   1.082       .  S
C2112      C2117   1.483   1_455  S
C2112      C2113   1.410       .  A
C2113      C2114   1.405       .  A
C2113      C2118   1.507   1_455  S
C2114      C2115   1.409       .  A
C2114      H2119   1.082       .  S
C2115      C2116   1.429       .  A
C2116      C2120   1.510       .  S
C2117      C2122   1.408       .  A
C2117      C2126   1.401       .  A
C2118      H2134   1.110       .  S
C2118      H2135   1.111       .  S
C2118      H2136   1.110   1_655  S
C2120      H2131   1.111       .  S
C2120      H2132   1.110       .  S
C2120      H2133   1.110       .  S
C2122      C2123   1.403       .  A
C2122      C2127   1.506       .  S
C2123      C2124   1.410       .  A
C2123      H2128   1.085       .  S
C2124      C2125   1.421       .  A
C2125      C2126   1.406       .  A
C2125      C2129   1.508       .  S
C2126      H2130   1.084       .  S
C2127      H2137   1.111       .  S
C2127      H2138   1.110       .  S
C2127      H2139   1.110       .  S
C2129      H2140   1.111       .  S
C2129      H2141   1.110       .  S
C2129      H2142   1.110       .  S
