geometry optimzed in LAMMPS
_audit_creation_date              2020-12-01 
_audit_creation_method            'lammps2cif' 
_symmetry_space_group_name_H-M    'P1' 
_symmetry_Int_Tables_number       1 
_symmetry_cell_setting            triclinic 
loop_ 
_symmetry_equiv_pos_as_xyz 
  x,y,z 
_cell_length_a                    40.92812786 
_cell_length_b                    40.90828858671123 
_cell_length_c                    62.482933144274135 
_cell_angle_alpha                 89.92057787421783 
_cell_angle_beta                  90.15289361412674 
_cell_angle_gamma                 120.7822723988697 
loop_ 
_atom_site_label 
_atom_site_type_symbol 
_atom_site_fract_x 
_atom_site_fract_y 
_atom_site_fract_z 
_atom_site_charge 
C1          C  0.17220154  0.33469073  0.61341448     0.45600
H2          H  0.17260305  0.33419948  0.59565661    -0.03400
C3          C  0.17102405  0.33588207  0.65501483     0.45700
H4          H  0.17066886  0.33655690  0.67278181    -0.03400
C5          C  0.21181057  0.35522502  0.62325959    -0.17100
C6          C  0.15259321  0.35478394  0.62233326    -0.16900
C7          C  0.15167575  0.29503936  0.62337595    -0.17200
C8          C  0.21154530  0.35625145  0.64526465    -0.17200
C9          C  0.15162408  0.35583637  0.64428728    -0.16800
C10         C  0.15068383  0.29523922  0.64538520    -0.17100
C11         C  0.16770782  0.33273395  0.80268818     0.45600
H12         H  0.16713691  0.33288458  0.78491408    -0.03400
C13         C  0.16872276  0.33150959  0.84442100     0.45700
H14         H  0.16928714  0.33106543  0.86222049    -0.03400
C15         C  0.14780293  0.29231723  0.81250076    -0.17100
C16         C  0.20818607  0.35275973  0.81243034    -0.16900
C17         C  0.14777347  0.35196289  0.81336273    -0.17200
C18         C  0.14865842  0.29217497  0.83440508    -0.17200
C19         C  0.20806071  0.35203519  0.83437011    -0.16800
C20         C  0.14870195  0.35119824  0.83533829    -0.17100
C21         C  0.00115263  0.99883760  0.74949733     0.45600
H22         H  0.00100636  0.99918967  0.76727818    -0.03400
C23         C  0.00159288  0.99893593  0.70764797     0.45700
H24         H  0.00569024  0.50067074  0.69117173    -0.03400
C25         C  0.46405529  0.47926143  0.74040303    -0.17100
C26         C  0.02057060  0.03867246  0.73957439    -0.16900
C27         C  0.02522748  0.48160423  0.74124197    -0.17200
C28         C  0.46489251  0.47916791  0.71837248    -0.17200
C29         C  0.02140980  0.03906888  0.71762809    -0.16800
C30         C  0.02511248  0.48084291  0.71916134    -0.17100
C31         C  0.33733814  0.16154174  0.30396994     0.45600
H32         H  0.33652479  0.16040472  0.28620424    -0.03400
C33         C  0.33920687  0.16424352  0.34563476     0.45700
H34         H  0.34007726  0.16557540  0.36342745    -0.03400
C35         C  0.36122344  0.20235821  0.31311950    -0.17100
C36         C  0.29760434  0.14471141  0.31453738    -0.16900
C37         C  0.35463708  0.13936565  0.31433981    -0.17200
C38         C  0.36178668  0.20309810  0.33504375    -0.17200
C39         C  0.29928131  0.14681945  0.33647909    -0.16800
C40         C  0.35504239  0.14073234  0.33630481    -0.17100
C41         C  0.33765513  0.16391251  0.11390820     0.45600
H42         H  0.33804878  0.16339837  0.09612518    -0.03400
C43         C  0.33700658  0.16516539  0.15546902     0.45700
H44         H  0.33671587  0.16573417  0.17323932    -0.03400
C45         C  0.29801328  0.14032298  0.12329967    -0.17100
C46         C  0.36116910  0.14888891  0.12414607    -0.16900
C47         C  0.35321721  0.20359187  0.12297189    -0.17200
C48         C  0.29707492  0.14088174  0.14527455    -0.17200
C49         C  0.36071296  0.14877888  0.14613359    -0.16800
C50         C  0.35368107  0.20492337  0.14495232    -0.17100
C51         C  0.00755147  0.49803399  0.25016357     0.45600
H52         H  0.00800136  0.49744994  0.26793714    -0.03400
C53         C  0.00659069  0.49952635  0.20830069     0.45700
H54         H  0.00622021  0.50001630  0.19052347    -0.03400
C55         C  0.04308933  0.01760272  0.23990664    -0.17100
C56         C  0.48683072  0.45822032  0.23981032    -0.16900
C57         C  0.48344170  0.01724998  0.24114986    -0.17200
C58         C  0.04237735  0.01880732  0.21792662    -0.17200
C59         C  0.48675682  0.45918946  0.21779528    -0.16800
C60         C  0.48195650  0.01741074  0.21915135    -0.17100
O61         O  0.01475711  0.07411659  0.95255092    -0.78300
C62         C  0.41793904  0.45695893  0.94258755     0.82700
O63         O  0.47171966  0.02163060  0.02343444    -0.79500
O64         O  0.45284819  0.40533052  0.99302638    -0.80900
O65         O  0.06448826  0.49002430  0.94875640    -0.80700
O66         O  0.06856813  0.07321294  0.95095766    -0.79400
Zn67       Zn  0.47833205  0.02925571  0.97015741     1.55700
O68         O  0.01038237  0.43378594  0.94938778    -0.80800
Cd69       Cd  0.05580874  0.02626747  0.96937578     1.59700
Cd70       Cd  0.00253496  0.00004516  0.01084046     1.59600
O71         O  0.09402770  0.04326030  0.99465969    -0.80800
O72         O  0.00208932  0.00088866  0.97937220    -1.91300
Cd73       Cd  0.47454177  0.44410408  0.96786211     1.59900
O74         O  0.05628717  0.03116740  0.02285336    -0.80700
O75         O  0.42995572  0.43513875  0.94851437    -0.79400
C76         C  0.45851574  0.04096917  0.01529587     0.83200
C77         C  0.04860873  0.08776902  0.94577182     0.82800
O78         O  0.43311918  0.49114441  0.94917558    -0.78300
C79         C  0.04442893  0.45544141  0.94290783     0.83600
O80         O  0.46026097  0.04760778  0.99525222    -0.78400
C81         C  0.08911743  0.04457464  0.01470679     0.83800
C82         C  0.45822206  0.41080463  0.01312881     0.84100
O83         O  0.47735397  0.44390885  0.02112121    -0.80800
O84         O  0.49746278  0.42947315  0.44741278    -0.78300
C85         C  0.08887809  0.04498728  0.44476049     0.82700
O86         O  0.03948789  0.46616389  0.51909459    -0.79500
O87         O  0.04591263  0.08561975  0.49833303    -0.80900
O88         O  0.43888427  0.00502260  0.45223445    -0.80700
O89         O  0.44153263  0.42602931  0.45015878    -0.79400
Zn90       Zn  0.03410936  0.47254487  0.46607555     1.55700
O91         O  0.49422910  0.06010477  0.45169601    -0.80800
Cd92       Cd  0.45422980  0.47133499  0.47026953     1.59700
Cd93       Cd  0.01186490  0.49367467  0.51035085     1.59600
O94         O  0.41837324  0.45253980  0.49673813    -0.80800
O95         O  0.00900380  0.49702823  0.47891466    -1.91300
Cd96       Cd  0.02954337  0.05083781  0.47132534     1.59900
O97         O  0.45876732  0.46508939  0.52378141    -0.80700
O98         O  0.07723208  0.06568740  0.45299626    -0.79400
C99         C  0.05516618  0.45160314  0.50838760     0.83200
C100        C  0.46243968  0.41415362  0.44245178     0.82800
O101        O  0.07268120  0.00953175  0.44874312    -0.78300
C102        C  0.45971115  0.03915840  0.44576549     0.83600
O103        O  0.05564028  0.45184114  0.48801847    -0.78400
C104        C  0.42515999  0.45171226  0.51661976     0.83800
C105        C  0.04807390  0.07868418  0.51806446     0.84100
O106        O  0.03585779  0.04506538  0.52488025    -0.80800
C107        C  0.12193668  0.06135527  0.02927469    -0.01100
C108        C  0.15370564  0.05818519  0.02505305    -0.09200
C109        C  0.18282658  0.07025821  0.04014317    -0.18000
C110        C  0.18101785  0.08628189  0.05986276     0.04400
C111        C  0.14984859  0.09173644  0.06332517     0.18600
C112        C  0.12045526  0.07870862  0.04825080    -0.19400
C113        C  0.14802068  0.10986486  0.08187278    -0.20700
C114        C  0.17657632  0.12264314  0.09721725    -0.19200
C115        C  0.20682915  0.11629737  0.09470930     0.20000
C116        C  0.20907378  0.09731287  0.07619602     0.02100
C117        C  0.23897463  0.08965960  0.07499083    -0.14000
C118        C  0.26635171  0.10183893  0.09105133    -0.11700
C119        C  0.26501084  0.12211494  0.10868173     0.01600
C120        C  0.23508191  0.12909350  0.11054531    -0.23900
H121        H  0.15543473  0.04513195  0.01035073     0.09600
H122        H  0.20637715  0.06682019  0.03587728     0.13200
H123        H  0.09616543  0.08191534  0.05133515     0.11900
H124        H  0.12446950  0.11443277  0.08445891     0.13100
H125        H  0.17465867  0.13699625  0.11129705     0.12100
H126        H  0.24185942  0.07413876  0.06195685     0.09200
H127        H  0.28932594  0.09610405  0.08945915     0.12500
H128        H  0.23439525  0.14545303  0.12397334     0.14400
C129        C  0.44217785  0.37855831  0.02807521    -0.01100
C130        C  0.40708063  0.34567319  0.02419595    -0.09200
C131        C  0.39069388  0.31702237  0.03967344    -0.18000
C132        C  0.40948515  0.32044618  0.05936702     0.04400
C133        C  0.44592083  0.35321981  0.06262629     0.18600
C134        C  0.46149377  0.38198563  0.04722128    -0.19400
C135        C  0.46677981  0.35715582  0.08120411    -0.20700
C136        C  0.45248164  0.32873896  0.09660515    -0.19200
C137        C  0.41642571  0.29642998  0.09411717     0.20000
C138        C  0.39389744  0.29231980  0.07577443     0.02100
C139        C  0.35674501  0.26031041  0.07471502    -0.14000
C140        C  0.34335586  0.23274119  0.09070210    -0.11700
C141        C  0.36645976  0.23599956  0.10808756     0.01600
C142        C  0.40291055  0.26795065  0.10979747    -0.23900
H143        H  0.39179530  0.34259883  0.00944458     0.09600
H144        H  0.36360431  0.29247229  0.03568401     0.13200
H145        H  0.48900217  0.40725120  0.05011564     0.11900
H146        H  0.49465045  0.38211905  0.08367757     0.13100
H147        H  0.46958854  0.33219415  0.11062642     0.12100
H148        H  0.33735913  0.25588763  0.06185254     0.09200
H149        H  0.31487175  0.20823917  0.08927858     0.12500
H150        H  0.42106072  0.27022779  0.12305566     0.14400
C151        C  0.38069152  0.13519812  0.11018434    -0.01100
C152        C  0.40312459  0.15855905  0.09345354    -0.09200
C153        C  0.41640465  0.14449050  0.07757891    -0.18000
C154        C  0.40736386  0.10623551  0.07796560     0.04400
C155        C  0.38656933  0.08334631  0.09578999     0.18600
C156        C  0.37306606  0.09783930  0.11157834    -0.19400
C157        C  0.37872600  0.04592364  0.09749934    -0.20700
C158        C  0.39119694  0.03070881  0.08188020    -0.19200
C159        C  0.41071366  0.05216770  0.06387007     0.20000
C160        C  0.41828278  0.08992931  0.06135278     0.02100
C161        C  0.43590416  0.10944311  0.04216360    -0.14000
C162        C  0.44723072  0.09274250  0.02664862    -0.11700
C163        C  0.44176698  0.05649014  0.02992988     0.01600
C164        C  0.42298174  0.03612914  0.04838672    -0.23900
H165        H  0.40949482  0.18769879  0.09233653     0.09600
H166        H  0.43349393  0.16417040  0.06520736     0.13200
H167        H  0.35541735  0.07967006  0.12446508     0.11900
H168        H  0.36308651  0.02840834  0.11107162     0.13100
H169        H  0.38435153  0.50027498  0.08112461     0.12100
H170        H  0.44119528  0.13753103  0.03863873     0.09200
H171        H  0.46161902  0.10880791  0.01242294     0.12500
H172        H  0.41818119  0.00772788  0.05077312     0.14400
C173        C  0.37088762  0.24094491  0.15728785    -0.01100
C174        C  0.39966765  0.24891645  0.17206939    -0.09200
C175        C  0.42047738  0.28487406  0.18144484    -0.18000
C176        C  0.41292859  0.31410680  0.17630056     0.04400
C177        C  0.38223878  0.30515372  0.16212510     0.18600
C178        C  0.36158560  0.26882920  0.15279078    -0.19400
C179        C  0.37255171  0.33257652  0.15725665    -0.20700
C180        C  0.39220197  0.36855828  0.16654634    -0.19200
C181        C  0.42273221  0.37837415  0.18045410     0.20000
C182        C  0.43423902  0.35161664  0.18502076     0.02100
C183        C  0.46662633  0.36360463  0.19812251    -0.14000
C184        C  0.48491272  0.39949810  0.20758185    -0.11700
C185        C  0.47151526  0.42447580  0.20444135     0.01600
C186        C  0.44137062  0.41447741  0.19023516    -0.23900
H187        H  0.40712959  0.22764686  0.17575820     0.09600
H188        H  0.44228131  0.28887839  0.19263955     0.13200
H189        H  0.33883103  0.26246401  0.14156876     0.11900
H190        H  0.34924155  0.32596367  0.14641952     0.13100
H191        H  0.38346291  0.38885795  0.16282193     0.12100
H192        H  0.47837471  0.34584353  0.20149124     0.09200
H193        H  0.00892149  0.40735200  0.21809953     0.12500
H194        H  0.43136098  0.43411613  0.18759039     0.14400
C195        C  0.37945047  0.13282392  0.15944631    -0.01100
C196        C  0.35848990  0.10501745  0.17481560    -0.09200
C197        C  0.37386860  0.08541975  0.18505907    -0.18000
C198        C  0.41093976  0.09309686  0.18013172     0.04400
C199        C  0.43271196  0.12281144  0.16531006     0.18600
C200        C  0.41702001  0.14251814  0.15535499    -0.19400
C201        C  0.46971978  0.13209651  0.16006734    -0.20700
C202        C  0.48560493  0.11224908  0.16904699    -0.19200
C203        C  0.46485404  0.08243732  0.18342536     0.20000
C204        C  0.42714829  0.07232525  0.18917705     0.02100
C205        C  0.40730322  0.04164944  0.20356161    -0.14000
C206        C  0.42454700  0.02269568  0.21225461    -0.11700
C207        C  0.46214635  0.03374869  0.20714243     0.01600
C208        C  0.48185047  0.06303754  0.19233707    -0.23900
H209        H  0.32945697  0.09724331  0.17824845     0.09600
H210        H  0.35577434  0.06394666  0.19644295     0.13200
H211        H  0.43364013  0.16463391  0.14377243     0.11900
H212        H  0.48644925  0.15475087  0.14880273     0.13100
H213        H  0.01433474  0.12018256  0.16462041     0.12100
H214        H  0.37853972  0.03178997  0.20853585     0.09200
H215        H  0.41387784  0.50198053  0.22328190     0.12500
H216        H  0.01100265  0.07172818  0.18842296     0.14400
C217        C  0.07754946  0.03726376  0.20479332    -0.01100
C218        C  0.08472084  0.01576474  0.19028304    -0.09200
C219        C  0.12038766  0.03110572  0.18056781    -0.14800
C220        C  0.15007412  0.06872194  0.18512048     0.04400
C221        C  0.14184034  0.09095125  0.19910641     0.18600
C222        C  0.10584234  0.07516494  0.20867531    -0.19400
C223        C  0.16977981  0.12858180  0.20378487    -0.20700
C224        C  0.20586118  0.14480225  0.19481500    -0.19200
C225        C  0.21511611  0.12367301  0.18114903     0.20000
C226        C  0.18749786  0.08515177  0.17628881     0.02100
C227        C  0.19863706  0.06481715  0.16281838    -0.14000
C228        C  0.23486385  0.08252255  0.15373078    -0.11700
C229        C  0.26122148  0.12091316  0.15774249     0.01600
C230        C  0.25163055  0.14107009  0.17195400    -0.23900
H231        H  0.06315256  0.98640421  0.18716201     0.09600
H232        H  0.12396460  0.01264845  0.16978586     0.13200
H233        H  0.10012362  0.09196845  0.21978878     0.11900
H234        H  0.16365134  0.14563602  0.21444097     0.13100
H235        H  0.22671708  0.17411967  0.19862064     0.12100
H236        H  0.17989377  0.03530943  0.15880098     0.09200
H237        H  0.24205224  0.06638995  0.14298479     0.12500
H238        H  0.27203860  0.17082940  0.17507412     0.14400
C239        C  0.26654941  0.13292176  0.35104282    -0.01100
C240        C  0.26247536  0.15895698  0.36347511    -0.09200
C241        C  0.23400347  0.14641407  0.37892621    -0.18000
C242        C  0.20928185  0.10711789  0.38274026     0.04400
C243        C  0.21450716  0.08089449  0.37039425     0.18600
C244        C  0.24256485  0.09398281  0.35447320    -0.19400
C245        C  0.19230424  0.04183276  0.37433985    -0.20700
C246        C  0.16495847  0.02811027  0.39032142    -0.19200
C247        C  0.15845648  0.05304527  0.40235222     0.20000
C248        C  0.18007831  0.09287863  0.39858547     0.02100
C249        C  0.17111401  0.11653387  0.41064787    -0.14000
C250        C  0.14196127  0.10114431  0.42581851    -0.11700
C251        C  0.12113193  0.06187051  0.42961252     0.01600
C252        C  0.12987216  0.03812710  0.41791130    -0.23900
H253        H  0.28171343  0.18921260  0.36132967     0.09600
H254        H  0.23277274  0.16812775  0.38800209     0.13200
H255        H  0.24676302  0.07396847  0.34524674     0.11900
H256        H  0.19640471  0.02175121  0.36514415     0.13100
H257        H  0.14842268  0.99769367  0.39310803     0.12100
H258        H  0.18550578  0.14688977  0.40840406     0.09200
H259        H  0.13553447  0.12009289  0.43447497     0.12500
H260        H  0.11367154  0.00762063  0.42048377     0.14400
C261        C  0.37888812  0.23769065  0.34818860    -0.01100
C262        C  0.35981786  0.25754587  0.35074212    -0.09200
C263        C  0.37239655  0.28668944  0.36579509    -0.18000
C264        C  0.40479975  0.29684149  0.37859988     0.04400
C265        C  0.42529699  0.27791089  0.37483779     0.18600
C266        C  0.41169720  0.24800835  0.36004450    -0.19400
C267        C  0.45894372  0.28864343  0.38602999    -0.20700
C268        C  0.47271873  0.31782916  0.40099507    -0.19200
C269        C  0.45238120  0.33591887  0.40569461     0.20000
C270        C  0.41769316  0.32514662  0.39491384     0.02100
C271        C  0.39706754  0.34262335  0.40125297    -0.14000
C272        C  0.41111507  0.37069003  0.41705436    -0.11700
C273        C  0.44619251  0.38244418  0.42690911     0.01600
C274        C  0.46649143  0.36464925  0.42124346    -0.23900
H275        H  0.33432160  0.24957181  0.34153261     0.09600
H276        H  0.35629202  0.30075064  0.36700408     0.13200
H277        H  0.42628726  0.23235545  0.35789399     0.11900
H278        H  0.47485899  0.27456710  0.38307144     0.13100
H279        H  0.99912007  0.32584449  0.40922859     0.12100
H280        H  0.36979061  0.33488924  0.39450334     0.09200
H281        H  0.39469611  0.38372121  0.42128101     0.12500
H282        H  0.99339516  0.37307679  0.42901015     0.14400
C283        C  0.44358905  0.05415411  0.43020676    -0.01100
C284        C  0.40468929  0.04128136  0.43038780    -0.09200
C285        C  0.38873548  0.05345379  0.41486918    -0.18000
C286        C  0.41126665  0.07852390  0.39833741     0.04400
C287        C  0.45074946  0.09120954  0.39815826     0.18600
C288        C  0.46652985  0.07928390  0.41413868    -0.19400
C289        C  0.47421702  0.11557346  0.38198936    -0.20700
C290        C  0.45948484  0.12832004  0.36615217    -0.19200
C291        C  0.42094441  0.11706791  0.36613039     0.20000
C292        C  0.39615420  0.09168177  0.38210559     0.02100
C293        C  0.35743420  0.08113898  0.38134790    -0.14000
C294        C  0.34434244  0.09639323  0.36597915    -0.11700
C295        C  0.36902880  0.12192611  0.35068921     0.01600
C296        C  0.40715354  0.13178913  0.35053883    -0.23900
H297        H  0.39275280  0.52749134  0.44434869     0.09600
H298        H  0.35862803  0.04243811  0.41622144     0.13200
H299        H  0.49660225  0.08874781  0.41372870     0.11900
H300        H  0.00427150  0.12505426  0.38167027     0.13100
H301        H  0.47846830  0.14749376  0.35397849     0.12100
H302        H  0.33663603  0.06179896  0.39262742     0.09200
H303        H  0.31473312  0.08860914  0.36619591     0.12500
H304        H  0.42629623  0.15198081  0.33875514     0.14400
C305        C  0.46897155  0.42194011  0.25224562    -0.01100
C306        C  0.49089637  0.41341357  0.26576795    -0.09200
C307        C  0.47536946  0.37724314  0.27512759    -0.18000
C308        C  0.43702907  0.34840173  0.27129591     0.04400
C309        C  0.41478766  0.35770720  0.25792244     0.18600
C310        C  0.43078569  0.39408810  0.24866825    -0.19400
C311        C  0.37669553  0.33057816  0.25368785    -0.20700
C312        C  0.35981645  0.29445224  0.26273979    -0.19200
C313        C  0.38062502  0.28430726  0.27615652     0.20000
C314        C  0.41972818  0.31091721  0.28040391     0.02100
C315        C  0.43952603  0.29889758  0.29380274    -0.14000
C316        C  0.42075904  0.26294208  0.30343343    -0.11700
C317        C  0.38186641  0.23762580  0.29999748     0.01600
C318        C  0.36220815  0.24800548  0.28582374    -0.23900
H319        H  0.52059731  0.43440935  0.26850065     0.09600
H320        H  0.49406621  0.37264120  0.28512024     0.13200
H321        H  0.41372752  0.40059899  0.23820449     0.11900
H322        H  0.35968387  0.33745790  0.24341821     0.13100
H323        H  0.33012404  0.27438313  0.25935051     0.12100
H324        H  0.46926126  0.31682701  0.29744069     0.09200
H325        H  0.43658117  0.25516241  0.31412008     0.12500
H326        H  0.33212669  0.22851634  0.28314519     0.14400
C327        C  0.37125034  0.12049206  0.30189387    -0.01100
C328        C  0.39952324  0.14138755  0.28680004    -0.09200
C329        C  0.41954372  0.12605708  0.27719914    -0.18000
C330        C  0.41166172  0.08899973  0.28241562     0.04400
C331        C  0.38124542  0.06706838  0.29677766     0.18600
C332        C  0.36147527  0.08295033  0.30637926    -0.19400
C333        C  0.37104122  0.02959034  0.30165662    -0.20700
C334        C  0.39028191  0.01325494  0.29246096    -0.19200
C335        C  0.42082363  0.03427003  0.27856448     0.20000
C336        C  0.43249673  0.07276100  0.27371897     0.02100
C337        C  0.46463883  0.09335613  0.26044128    -0.14000
C338        C  0.48262785  0.07571754  0.25118374    -0.11700
C339        C  0.46921714  0.03709708  0.25471726     0.01600
C340        C  0.43924440  0.01680821  0.26904894    -0.23900
H341        H  0.40721527  0.17032150  0.28303598     0.09600
H342        H  0.44108936  0.14396081  0.26582302     0.13200
H343        H  0.33895525  0.06639596  0.31772728     0.11900
H344        H  0.34780812  0.01268331  0.31253166     0.13100
H345        H  0.38127521  0.98399029  0.29630758     0.12100
H346        H  0.47634443  0.12301497  0.25673479     0.09200
H347        H  0.50627510  0.09194337  0.24041478     0.12500
H348        H  0.43580195  0.48938251  0.27266076     0.14400
C349        C  0.07886532  0.03290136  0.25248245    -0.01100
C350        C  0.10335572  0.01903140  0.24892343    -0.09200
C351        C  0.13921336  0.03617784  0.25858648    -0.18000
C352        C  0.15184013  0.06804889  0.27220247     0.04400
C353        C  0.12621311  0.08115238  0.27630128     0.18600
C354        C  0.09009176  0.06346759  0.26650189    -0.19400
C355        C  0.13698085  0.11215384  0.28994305    -0.20700
C356        C  0.17254321  0.13036205  0.29974099    -0.19200
C357        C  0.19856050  0.11847944  0.29589121     0.20000
C358        C  0.18884268  0.08740450  0.28189076     0.02100
C359        C  0.21677531  0.07741560  0.27810662    -0.14000
C360        C  0.25238404  0.09693310  0.28815634    -0.11700
C361        C  0.26119680  0.12665430  0.30240187     0.01600
C362        C  0.23430323  0.13753880  0.30601769    -0.23900
H363        H  0.09492501  0.99522793  0.23819363     0.09600
H364        H  0.15648508  0.02396853  0.25496432     0.13200
H365        H  0.07116667  0.07430877  0.26917042     0.11900
H366        H  0.11768830  0.12234200  0.29311768     0.13100
H367        H  0.17984519  0.15411270  0.31034287     0.12100
H368        H  0.21197032  0.05463482  0.26746566     0.09200
H369        H  0.27281330  0.08807750  0.28523677     0.12500
H370        H  0.24127064  0.16095900  0.31683497     0.14400
C371        C  0.06418880  0.12011065  0.93066659    -0.01100
C372        C  0.04207557  0.13567457  0.92444373    -0.09200
C373        C  0.05439241  0.16310186  0.90839942    -0.18000
C374        C  0.08944819  0.17590886  0.89794028     0.04400
C375        C  0.11283182  0.16171223  0.90515402     0.18600
C376        C  0.09996192  0.13389557  0.92124905    -0.19400
C377        C  0.14875408  0.17512510  0.89612934    -0.20700
C378        C  0.16205989  0.20251621  0.88009598    -0.19200
C379        C  0.13927317  0.21625554  0.87227919     0.20000
C380        C  0.10228408  0.20256233  0.88075025     0.02100
C381        C  0.07964602  0.21588715  0.87147204    -0.14000
C382        C  0.09409386  0.24333333  0.85536030    -0.11700
C383        C  0.13121639  0.25811820  0.84808022     0.01600
C384        C  0.15343715  0.24404477  0.85619706    -0.23900
H385        H  0.01460261  0.12605767  0.93168795     0.09600
H386        H  0.03584091  0.17375940  0.90458851     0.13200
H387        H  0.11756834  0.12241603  0.92611132     0.11900
H388        H  0.16683071  0.16459297  0.90163981     0.13100
H389        H  0.19023041  0.21280432  0.87364383     0.12100
H390        H  0.05076922  0.20574874  0.87631603     0.09200
H391        H  0.07657745  0.25384534  0.84894493     0.12500
H392        H  0.18201511  0.25521441  0.85019945     0.14400
C393        C  0.24201562  0.36887765  0.84804243    -0.01100
C394        C  0.26559521  0.40827157  0.84940682    -0.09200
C395        C  0.29487305  0.42419211  0.86449288    -0.18000
C396        C  0.30120257  0.40078621  0.87856994     0.04400
C397        C  0.27783777  0.36066855  0.87629223     0.18600
C398        C  0.24838636  0.34525109  0.86127335    -0.19400
C399        C  0.28354399  0.33610801  0.88922425    -0.20700
C400        C  0.31203549  0.35054540  0.90459607    -0.19200
C401        C  0.33497212  0.38982939  0.90761762     0.20000
C402        C  0.32966850  0.41557053  0.89483427     0.02100
C403        C  0.35279434  0.45490290  0.89909673    -0.14000
C404        C  0.38059217  0.46809250  0.91500756    -0.11700
C405        C  0.38644510  0.44262752  0.92704776     0.01600
C406        C  0.36331681  0.40352426  0.92337698    -0.23900
H407        H  0.26055381  0.42670966  0.83922081     0.09600
H408        H  0.31185519  0.45483720  0.86480826     0.13200
H409        H  0.22997975  0.31472782  0.86003280     0.11900
H410        H  0.26584636  0.30551074  0.88742590     0.13100
H411        H  0.31593332  0.33083084  0.91433181     0.12100
H412        H  0.35007811  0.47625663  0.89046496     0.09200
H413        H  0.39818142  0.49848449  0.91755078     0.12500
H414        H  0.36743421  0.38360042  0.93280298     0.14400
C415        C  0.06109373  0.44081142  0.92752996    -0.01100
C416        C  0.09058449  0.46624555  0.91409191    -0.09200
C417        C  0.10545262  0.45308072  0.89860660    -0.18000
C418        C  0.09148474  0.41378614  0.89620778     0.04400
C419        C  0.06272640  0.38819503  0.91055301     0.18600
C420        C  0.04737861  0.40179908  0.92576049    -0.19400
C421        C  0.04955756  0.34922198  0.90967478    -0.20700
C422        C  0.06442092  0.33505709  0.89485951    -0.19200
C423        C  0.09190147  0.35938932  0.88015243     0.20000
C424        C  0.10532364  0.39901969  0.88027825     0.02100
C425        C  0.13170300  0.42199228  0.86431450    -0.14000
C426        C  0.14494990  0.40628855  0.84930564    -0.11700
C427        C  0.13249520  0.36752931  0.84988261     0.01600
C428        C  0.10608207  0.34426186  0.86527342    -0.23900
H429        H  0.10178857  0.49658741  0.91523840     0.09600
H430        H  0.12812298  0.47442461  0.88892996     0.13200
H431        H  0.02497114  0.38203245  0.93636579     0.11900
H432        H  0.02789325  0.32960914  0.92066643     0.13100
H433        H  0.05402486  0.30479110  0.89473151     0.12100
H434        H  0.14237539  0.45204425  0.86287989     0.09200
H435        H  0.16556003  0.42455953  0.83746464     0.12500
H436        H  0.09647505  0.31420788  0.86560609     0.14400
C437        C  0.24379721  0.36783480  0.79983745    -0.01100
C438        C  0.26848851  0.35437978  0.80402952    -0.09200
C439        C  0.30460979  0.37171972  0.79488895    -0.18000
C440        C  0.31734668  0.40331462  0.78106454     0.04400
C441        C  0.29136344  0.41558829  0.77595358     0.18600
C442        C  0.25491359  0.39773043  0.78530736    -0.19400
C443        C  0.30225131  0.44611821  0.76189355    -0.20700
C444        C  0.33847684  0.46499702  0.75294509    -0.19200
C445        C  0.36494365  0.45413078  0.75799816     0.20000
C446        C  0.35485172  0.42319861  0.77218398     0.02100
C447        C  0.38286144  0.41370419  0.77690822    -0.14000
C448        C  0.41873500  0.43317541  0.76736653    -0.11700
C449        C  0.42811296  0.46275076  0.75293958     0.01600
C450        C  0.40134323  0.47369007  0.74869866    -0.23900
H451        H  0.26005163  0.33078868  0.81493466     0.09600
H452        H  0.32201993  0.35990674  0.79916674     0.13200
H453        H  0.23585159  0.40816881  0.78199810     0.11900
H454        H  0.28261773  0.45555471  0.75782715     0.13100
H455        H  0.34592464  0.48843067  0.74205507     0.12100
H456        H  0.37777793  0.39099492  0.78770271     0.09200
H457        H  0.43866265  0.42382252  0.77059078     0.12500
H458        H  0.40854240  0.49673644  0.73753176     0.14400
C459        C  0.12767583  0.36774642  0.80132648    -0.01100
C460        C  0.09043200  0.35718720  0.80688336    -0.09200
C461        C  0.07303558  0.37575945  0.79801984    -0.18000
C462        C  0.09246224  0.40562231  0.78312473     0.04400
C463        C  0.12933769  0.41443437  0.77646244     0.18600
C464        C  0.14646955  0.39534614  0.78552273    -0.19400
C465        C  0.14920230  0.44281926  0.76116083    -0.20700
C466        C  0.13343627  0.46299423  0.75247829    -0.19200
C467        C  0.09755980  0.45550281  0.75901737     0.20000
C468        C  0.07660868  0.42689703  0.77453856     0.02100
C469        C  0.04079466  0.42103871  0.78084181    -0.14000
C470        C  0.02536368  0.44076261  0.77098707    -0.11700
C471        C  0.04494099  0.46687483  0.75468368     0.01600
C472        C  0.08197960  0.47572607  0.74965297    -0.23900
H473        H  0.07500030  0.33497850  0.81860187     0.09600
H474        H  0.04448823  0.36624966  0.80329776     0.13200
H475        H  0.17508000  0.40316187  0.78097723     0.11900
H476        H  0.17718275  0.44952551  0.75590220     0.13100
H477        H  0.14941908  0.48461524  0.74054170     0.12100
H478        H  0.02370229  0.40094304  0.79306344     0.09200
H479        H  0.49715660  0.43422981  0.77553869     0.12500
H480        H  0.09780664  0.49691160  0.73746901     0.14400
C481        C  0.12987869  0.25691172  0.79986123    -0.01100
C482        C  0.09717378  0.24632811  0.78782337    -0.09200
C483        C  0.07740433  0.21044690  0.77817767    -0.18000
C484        C  0.09005327  0.18417114  0.78039481     0.04400
C485        C  0.12407730  0.19592244  0.79217353     0.18600
C486        C  0.14357635  0.23199299  0.80165359    -0.19400
C487        C  0.13830831  0.17150677  0.79466449    -0.20700
C488        C  0.11950087  0.13541280  0.78566285    -0.19200
C489        C  0.08584405  0.12275254  0.77409514     0.20000
C490        C  0.07043203  0.14681947  0.77135272     0.02100
C491        C  0.03621699  0.13242909  0.75958217    -0.14000
C492        C  0.01906758  0.09642288  0.75023081    -0.11700
C493        C  0.03519574  0.07362235  0.75248041     0.01600
C494        C  0.06793961  0.08638040  0.76483204    -0.23900
H495        H  0.08624527  0.26541674  0.78646725     0.09600
H496        H  0.05216775  0.20399949  0.76931460     0.13200
H497        H  0.16924401  0.24058107  0.81084406     0.11900
H498        H  0.16424839  0.18042539  0.80363773     0.13100
H499        H  0.13140848  0.11726912  0.78774274     0.12100
H500        H  0.02235584  0.14851308  0.75699322     0.09200
H501        H  0.99366783  0.08668687  0.74062185     0.12500
H502        H  0.08047772  0.06865938  0.76631735     0.14400
C503        C  0.06480557  0.11017683  0.53371737    -0.01100
C504        C  0.07862596  0.10570969  0.55339601    -0.09200
C505        C  0.09337297  0.13476298  0.56862507    -0.18000
C506        C  0.09410741  0.16917521  0.56476926     0.04400
C507        C  0.07929893  0.17317593  0.54493530     0.18600
C508        C  0.06563405  0.14418355  0.52951856    -0.19400
C509        C  0.07741508  0.20574959  0.54075279    -0.20700
C510        C  0.08924870  0.23422906  0.55601823    -0.19200
C511        C  0.10455549  0.23144507  0.57550500     0.20000
C512        C  0.10821547  0.19942912  0.58000259     0.02100
C513        C  0.12630892  0.19948305  0.59937679    -0.14000
C514        C  0.13995749  0.23006686  0.61363968    -0.11700
C515        C  0.13495417  0.26084878  0.60937234     0.01600
C516        C  0.11684282  0.26100308  0.59036913    -0.23900
H517        H  0.07808366  0.07953759  0.55707042     0.09600
H518        H  0.10306140  0.12907834  0.58343807     0.13200
H519        H  0.05442467  0.14761010  0.51448538     0.11900
H520        H  0.06604073  0.20891333  0.52571711     0.13100
H521        H  0.08686395  0.25885538  0.55244249     0.12100
H522        H  0.13146106  0.17696508  0.60359515     0.09200
H523        H  0.15520540  0.22997361  0.62779785     0.12500
H524        H  0.11282215  0.28467137  0.58690057     0.14400
C525        C  0.24596977  0.37191189  0.60921404    -0.01100
C526        C  0.27665295  0.36679722  0.61348266    -0.09200
C527        C  0.30686984  0.37971635  0.59907224    -0.18000
C528        C  0.30676071  0.39732182  0.57954003     0.04400
C529        C  0.27545937  0.40228483  0.57533972     0.18600
C530        C  0.24597072  0.39015129  0.59021863    -0.19400
C531        C  0.27324181  0.41863265  0.55610712    -0.20700
C532        C  0.30140359  0.42988233  0.54071520    -0.19200
C533        C  0.33274908  0.42561167  0.54432290     0.20000
C534        C  0.33614360  0.40964803  0.56388337     0.02100
C535        C  0.36890066  0.40693437  0.56692189    -0.14000
C536        C  0.39720177  0.41998488  0.55135841    -0.11700
C537        C  0.39362535  0.43554579  0.53213898     0.01600
C538        C  0.36107241  0.43779433  0.52858125    -0.23900
H539        H  0.27687270  0.35182543  0.62773588     0.09600
H540        H  0.32928326  0.37453467  0.60341767     0.13200
H541        H  0.22243442  0.39422761  0.58669229     0.11900
H542        H  0.24933083  0.42235916  0.55284754     0.13100
H543        H  0.29873387  0.44220868  0.52591378     0.12100
H544        H  0.37385638  0.39549908  0.58127685     0.09200
H545        H  0.42219359  0.41798783  0.55442704     0.12500
H546        H  0.35841612  0.45030820  0.51384186     0.14400
C547        C  0.13644840  0.37045081  0.60733819    -0.01100
C548        C  0.09893143  0.34775172  0.60048753    -0.09200
C549        C  0.08557293  0.35876121  0.58299942    -0.18000
C550        C  0.10972246  0.39297306  0.57186430     0.04400
C551        C  0.14738633  0.41667631  0.57965490     0.18600
C552        C  0.16052237  0.40489063  0.59702587    -0.19400
C553        C  0.17169724  0.45184436  0.57001055    -0.20700
C554        C  0.15897573  0.46456976  0.55309708    -0.19200
C555        C  0.12218058  0.44173555  0.54492529     0.20000
C556        C  0.09756945  0.40495215  0.55363913     0.02100
C557        C  0.06164147  0.38197539  0.54388883    -0.14000
C558        C  0.04921695  0.39638996  0.52763169    -0.11700
C559        C  0.07236373  0.43366986  0.52046779     0.01600
C560        C  0.10920653  0.45590531  0.52859752    -0.23900
H561        H  0.08036637  0.32070928  0.60820530     0.09600
H562        H  0.05623105  0.33992798  0.57860556     0.13200
H563        H  0.18973453  0.42225790  0.60241559     0.11900
H564        H  0.20044109  0.46998221  0.57590059     0.13100
H565        H  0.17800420  0.49246007  0.54638207     0.12100
H566        H  0.04220202  0.35304458  0.54876472     0.09200
H567        H  0.02060408  0.37904028  0.52140581     0.12500
H568        H  0.12695949  0.48494258  0.52301226     0.14400
C569        C  0.12945265  0.25989309  0.65832022    -0.01100
C570        C  0.09109247  0.23417673  0.65378959    -0.09200
C571        C  0.07208983  0.19810759  0.66315216    -0.18000
C572        C  0.09099290  0.18641062  0.67745231     0.04400
C573        C  0.12946580  0.21338217  0.68282187     0.18600
C574        C  0.14815153  0.24982474  0.67338392    -0.19400
C575        C  0.14937420  0.20340095  0.69708174    -0.20700
C576        C  0.13225126  0.16697846  0.70577345    -0.19200
C577        C  0.09475901  0.13954366  0.70044094     0.20000
C578        C  0.07338778  0.14887765  0.68636529     0.02100
C579        C  0.03542523  0.12010997  0.68179711    -0.14000
C580        C  0.01926245  0.08401912  0.69113716    -0.11700
C581        C  0.04030908  0.07517617  0.70511451     0.01600
C582        C  0.07830730  0.10290488  0.70936826    -0.23900
H583        H  0.07609427  0.24164984  0.64231537     0.09600
H584        H  0.04279897  0.17973807  0.65847603     0.13200
H585        H  0.17785542  0.26959196  0.67689981     0.11900
H586        H  0.17859398  0.22380742  0.70135954     0.13100
H587        H  0.14854220  0.16015120  0.71668894     0.12100
H588        H  0.01715919  0.12480581  0.67137569     0.09200
H589        H  0.48968565  0.06357230  0.68813599     0.12500
H590        H  0.09474728  0.09619199  0.72025994     0.14400
C591        C  0.43005216  0.46009430  0.70494145    -0.01100
C592        C  0.42398698  0.48013632  0.68883913    -0.09200
C593        C  0.38834833  0.46491391  0.67911434    -0.18000
C594        C  0.35773550  0.42879455  0.68519213     0.04400
C595        C  0.36518091  0.40737229  0.70028543     0.18600
C596        C  0.40119606  0.42291982  0.70971365    -0.19400
C597        C  0.33644472  0.37087696  0.70626656    -0.20700
C598        C  0.30028395  0.35491403  0.69744982    -0.19200
C599        C  0.29184539  0.37532657  0.68271651     0.20000
C600        C  0.32022235  0.41288959  0.67667334     0.02100
C601        C  0.30970082  0.43280318  0.66240487    -0.14000
C602        C  0.27342968  0.41506799  0.65334214    -0.11700
C603        C  0.24667623  0.37712547  0.65817088     0.01600
C604        C  0.25542572  0.35794537  0.67351110    -0.23900
H605        H  0.44344978  0.00353291  0.68150080     0.09600
H606        H  0.38557914  0.48221198  0.66704602     0.13200
H607        H  0.40636672  0.40669578  0.72158049     0.11900
H608        H  0.34201644  0.35449138  0.71780289     0.13100
H609        H  0.27874763  0.32636291  0.70218164     0.12100
H610        H  0.32896929  0.46186905  0.65772533     0.09200
H611        H  0.26666939  0.43053745  0.64179453     0.12500
H612        H  0.23457418  0.32872263  0.67739079     0.14400
C613        C  0.13522701  0.37567730  0.65625603    -0.01100
C614        C  0.14473161  0.41257049  0.65036613    -0.09200
C615        C  0.12682120  0.43026241  0.65968875    -0.18000
C616        C  0.09901979  0.41185782  0.67573491     0.04400
C617        C  0.09137578  0.37549254  0.68283343     0.18600
C618        C  0.10935504  0.35771937  0.67302124    -0.19400
C619        C  0.06561276  0.35705130  0.69954451    -0.20700
C620        C  0.04695540  0.37367200  0.70915975    -0.19200
C621        C  0.05306704  0.40890001  0.70209474     0.20000
C622        C  0.07901471  0.42846971  0.68519869     0.02100
C623        C  0.08355051  0.46368016  0.67845648    -0.14000
C624        C  0.06492497  0.47979514  0.68893725    -0.11700
C625        C  0.04089926  0.46128550  0.70626255     0.01600
C626        C  0.03377485  0.42497659  0.71206842    -0.23900
H627        H  0.16627625  0.42800965  0.63839392     0.09600
H628        H  0.13562985  0.45851545  0.65410869     0.13200
H629        H  0.10244076  0.32948569  0.67801832     0.11900
H630        H  0.05989457  0.32958196  0.70525530     0.13100
H631        H  0.52745882  0.35877049  0.72218547     0.12100
H632        H  0.10161262  0.47967559  0.66526240     0.09200
H633        H  0.06957964  0.00821131  0.68393641     0.12500
H634        H  0.51407093  0.40973359  0.72496070     0.14400
C635        C  0.16527880  0.83099523  0.61288721     0.45600
H636        H  0.16444831  0.82932463  0.59512156    -0.03400
C637        C  0.16691606  0.83467922  0.65450066     0.45700
H638        H  0.16753912  0.83629397  0.67225503    -0.03400
C639        C  0.20542892  0.85106934  0.62209523    -0.17100
C640        C  0.14726265  0.85252780  0.62185585    -0.16900
C641        C  0.14450310  0.79210449  0.62362655    -0.17200
C642        C  0.20673294  0.85339276  0.64409040    -0.17200
C643        C  0.14786542  0.85486866  0.64375572    -0.16800
C644        C  0.14515634  0.79369989  0.64556774    -0.17100
C645        C  0.16833504  0.83576951  0.80355488     0.45600
H646        H  0.16857602  0.83666804  0.78578265    -0.03400
C647        C  0.16758053  0.83281824  0.84525517     0.45700
H648        H  0.16718379  0.83156323  0.86304206    -0.03400
C649        C  0.14999414  0.79503151  0.81276582    -0.17100
C650        C  0.20831732  0.85710757  0.81388034    -0.16900
C651        C  0.14620116  0.85278203  0.81412888    -0.17200
C652        C  0.14994225  0.79397121  0.83467053    -0.17200
C653        C  0.20744900  0.85568381  0.83585280    -0.16800
C654        C  0.14608795  0.85101291  0.83611194    -0.17100
C655        C  0.00383468  0.50007649  0.75080197     0.45600
H656        H  0.00328066  0.50022708  0.76857598    -0.03400
C657        C  0.00521247  0.50045494  0.70894752     0.45700
H658        H  0.00185616  0.99891582  0.68987248    -0.03400
C659        C  0.46122184  0.97839843  0.73940629    -0.17100
C660        C  0.02325739  0.54005838  0.74098468    -0.16900
C661        C  0.02200143  0.97994113  0.73982729    -0.17200
C662        C  0.46132154  0.97773619  0.71736100    -0.17200
C663        C  0.02427468  0.54036929  0.71906194    -0.16800
C664        C  0.02153748  0.97932478  0.71776760    -0.17100
C665        C  0.34176475  0.66238404  0.30350226     0.45600
H666        H  0.34108449  0.66118404  0.28573734    -0.03400
C667        C  0.34340730  0.66543198  0.34514637     0.45700
H668        H  0.34416403  0.66692448  0.36293573    -0.03400
C669        C  0.36602364  0.70308747  0.31260072    -0.17100
C670        C  0.30211090  0.64645791  0.31391627    -0.16900
C671        C  0.35838974  0.63975529  0.31405594    -0.17200
C672        C  0.36653062  0.70407902  0.33451880    -0.17200
C673        C  0.30370692  0.64872184  0.33584670    -0.16800
C674        C  0.35859357  0.64124440  0.33603030    -0.17100
C675        C  0.33998077  0.66437955  0.11222857     0.45600
H676        H  0.34027322  0.66506317  0.09444006    -0.03400
C677        C  0.33960877  0.66313248  0.15379531     0.45700
H678        H  0.33934989  0.66263635  0.17157075    -0.03400
C679        C  0.30042041  0.63936535  0.12151013    -0.17100
C680        C  0.36406107  0.64932096  0.12171100    -0.16900
C681        C  0.35486150  0.70339103  0.12220114    -0.17200
C682        C  0.29969096  0.63869557  0.14352495    -0.17200
C683        C  0.36391187  0.64798954  0.14370074    -0.16800
C684        C  0.35535844  0.70342000  0.14417216    -0.17100
C685        C  0.00340884  0.99703522  0.25019442     0.45600
H686        H  0.00408608  0.99647102  0.26796456    -0.03400
C687        C  0.00192828  0.99848889  0.20833048     0.45700
H688        H  0.00136775  0.99911123  0.19056070    -0.03400
C689        C  0.04735744  0.51829573  0.24002483    -0.17100
C690        C  0.48272344  0.95729476  0.23978165    -0.16900
C691        C  0.48807037  0.51869357  0.24085528    -0.17200
C692        C  0.04687745  0.51942909  0.21801125    -0.17200
C693        C  0.48250858  0.95806134  0.21774562    -0.16800
C694        C  0.48687528  0.51887378  0.21882183    -0.17100
O695        O  0.01262110  0.56949941  0.94959057    -0.78300
C696        C  0.41799746  0.96244092  0.94419194     0.82700
O697        O  0.47212454  0.52038015  0.02141401    -0.79500
O698        O  0.45232729  0.90829029  0.99425509    -0.80900
O699        O  0.06314089  0.99025985  0.94984008    -0.80700
O700        O  0.06808510  0.57180330  0.94963331    -0.79400
Zn701      Zn  0.47734447  0.52520702  0.96805436     1.55700
O702        O  0.00782992  0.93520355  0.95004484    -0.80800
Cd703      Cd  0.05609529  0.52518336  0.96826927     1.59700
Cd704      Cd  0.00211998  0.49763578  0.00939318     1.59600
O705        O  0.09412410  0.54176040  0.99372468    -0.80800
O706        O  0.00209406  0.49823068  0.97792717    -1.91300
Cd707      Cd  0.47346643  0.94700461  0.96908517     1.59900
O708        O  0.05573845  0.52698931  0.02184529    -0.80700
O709        O  0.42892101  0.93978754  0.95027282    -0.79400
C710        C  0.45791637  0.53846766  0.01284369     0.83200
C711        C  0.04695110  0.58443910  0.94336835     0.82800
O712        O  0.43412343  0.99679160  0.95065361    -0.78300
C713        C  0.04211765  0.95592912  0.94371764     0.83600
O714        O  0.45886262  0.54380591  0.99269229    -0.78400
C715        C  0.08878476  0.54119369  0.01385207     0.83800
C716        C  0.45950065  0.91331547  0.01424927     0.84100
O717        O  0.47974081  0.94621945  0.02235223    -0.80800
O718        O  0.49364728  0.92938433  0.44762988    -0.78300
C719        C  0.09368927  0.54527141  0.44388540     0.82700
O720        O  0.03099734  0.96239939  0.51963069    -0.79500
O721        O  0.05065552  0.58681361  0.49732488    -0.80900
O722        O  0.44383035  0.50785888  0.45264938    -0.80700
O723        O  0.43679358  0.92372458  0.45059741    -0.79400
Zn724      Zn  0.02934994  0.97199654  0.46674433     1.55700
O725        O  0.50010835  0.56172662  0.45086264    -0.80800
Cd726      Cd  0.44911236  0.96925235  0.47042992     1.59700
Cd727      Cd  0.00601149  0.99241974  0.51090923     1.59600
O728        O  0.41278941  0.95106705  0.49657216    -0.80800
O729        O  0.00372738  0.99588517  0.47948089    -1.91300
Cd730      Cd  0.03499770  0.55188629  0.47051580     1.59900
O731        O  0.45289111  0.96507290  0.52394652    -0.80700
O732        O  0.08276294  0.56628154  0.45249202    -0.79400
C733        C  0.04712855  0.94825727  0.50896813     0.83200
C734        C  0.45855338  0.91306937  0.44270763     0.82800
O735        O  0.07694035  0.50966182  0.44753600    -0.78300
C736        C  0.46510273  0.54163221  0.44570450     0.83600
O737        O  0.04957441  0.95032022  0.48866906    -0.78400
C738        C  0.41941190  0.95115936  0.51653445     0.83800
C739        C  0.05236156  0.57990868  0.51709384     0.84100
O740        O  0.04056541  0.54646808  0.52403346    -0.80800
C741        C  0.12131497  0.55675215  0.02868873    -0.01100
C742        C  0.15376170  0.55504595  0.02390731    -0.09200
C743        C  0.18298277  0.56671618  0.03895224    -0.18000
C744        C  0.18069668  0.58103741  0.05917644     0.04400
C745        C  0.14839052  0.58428481  0.06343148     0.18600
C746        C  0.11894473  0.57161388  0.04840505    -0.19400
C747        C  0.14563369  0.60025809  0.08263203    -0.20700
C748        C  0.17466910  0.61368554  0.09769066    -0.19200
C749        C  0.20651330  0.61026106  0.09421309     0.20000
C750        C  0.20952274  0.59291289  0.07517764     0.02100
C751        C  0.24120019  0.58815771  0.07305140    -0.14000
C752        C  0.26946596  0.60167447  0.08871402    -0.11700
C753        C  0.26728307  0.62048073  0.10686668     0.01600
C754        C  0.23564754  0.62455204  0.10957614    -0.23900
H755        H  0.15609179  0.54367162  0.00871383     0.09600
H756        H  0.20708865  0.56455326  0.03421592     0.13200
H757        H  0.09405461  0.57350400  0.05203268     0.11900
H758        H  0.12109382  0.60291951  0.08588580     0.13100
H759        H  0.17206147  0.62657038  0.11224145     0.12100
H760        H  0.24485988  0.57399773  0.05955190     0.09200
H761        H  0.29363717  0.59799673  0.08644389     0.12500
H762        H  0.23414964  0.63976050  0.12337213     0.14400
C763        C  0.44382738  0.88069130  0.02892239    -0.01100
C764        C  0.40781609  0.84878181  0.02549151    -0.09200
C765        C  0.39143383  0.82003419  0.04088262    -0.18000
C766        C  0.41105390  0.82232369  0.06006393     0.04400
C767        C  0.44842984  0.85395567  0.06281181     0.18600
C768        C  0.46412547  0.88287451  0.04746021    -0.19400
C769        C  0.46996049  0.85664121  0.08086903    -0.20700
C770        C  0.45532540  0.82816638  0.09625948    -0.19200
C771        C  0.41841056  0.79695512  0.09424002     0.20000
C772        C  0.39533147  0.79409477  0.07641568     0.02100
C773        C  0.35756922  0.76304781  0.07573507    -0.14000
C774        C  0.34420364  0.73485074  0.09135981    -0.11700
C775        C  0.36780892  0.73676558  0.10812771     0.01600
C776        C  0.40466544  0.76812880  0.10974179    -0.23900
H777        H  0.39178188  0.84666026  0.01121393     0.09600
H778        H  0.36353697  0.79632753  0.03724098     0.13200
H779        H  0.49234900  0.90737687  0.04997541     0.11900
H780        H  0.49856216  0.88069579  0.08295602     0.13100
H781        H  0.47291724  0.83063354  0.10985969     0.12100
H782        H  0.33774927  0.75965548  0.06332132     0.09200
H783        H  0.31542294  0.71081786  0.09007871     0.12500
H784        H  0.42306047  0.76939989  0.12262588     0.14400
C785        C  0.38208480  0.63494256  0.10712421    -0.01100
C786        C  0.40340940  0.65764140  0.08992165    -0.09200
C787        C  0.41565366  0.64291632  0.07386555    -0.18000
C788        C  0.40673286  0.60470231  0.07457345     0.04400
C789        C  0.38651903  0.58233611  0.09266504     0.18600
C790        C  0.37394776  0.59742888  0.10856942    -0.19400
C791        C  0.37849015  0.54488650  0.09461839    -0.20700
C792        C  0.39043906  0.52918033  0.07902877    -0.19200
C793        C  0.40971658  0.55022683  0.06086918     0.20000
C794        C  0.41733848  0.58797021  0.05807736     0.02100
C795        C  0.43498787  0.60713994  0.03882327    -0.14000
C796        C  0.44635511  0.59019244  0.02352396    -0.11700
C797        C  0.44083563  0.55401729  0.02709905     0.01600
C798        C  0.42190711  0.53389161  0.04556372    -0.23900
H799        H  0.40986752  0.68678951  0.08866277     0.09600
H800        H  0.43200281  0.66216184  0.06113908     0.13200
H801        H  0.35678604  0.57963875  0.12170529     0.11900
H802        H  0.36322526  0.52778518  0.10838805     0.13100
H803        H  0.38514360  0.00178941  0.08377590     0.12100
H804        H  0.44047236  0.63526569  0.03511047     0.09200
H805        H  0.46091298  0.60602857  0.00927616     0.12500
H806        H  0.41713164  0.50552591  0.04814487     0.14400
C807        C  0.37104653  0.73876062  0.15719069    -0.01100
C808        C  0.40025812  0.74758209  0.17184303    -0.09200
C809        C  0.41979197  0.78338543  0.18160493    -0.18000
C810        C  0.41051731  0.81162215  0.17700983     0.04400
C811        C  0.37916720  0.80157566  0.16314424     0.18600
C812        C  0.35984085  0.76546096  0.15341265    -0.19400
C813        C  0.36771777  0.82785199  0.15881880    -0.20700
C814        C  0.38667053  0.86395798  0.16801037    -0.19200
C815        C  0.41816924  0.87510130  0.18137278     0.20000
C816        C  0.43097696  0.84929057  0.18575027     0.02100
C817        C  0.46391194  0.86246944  0.19854597    -0.14000
C818        C  0.48190495  0.89875806  0.20761816    -0.11700
C819        C  0.46768490  0.92309021  0.20443779     0.01600
C820        C  0.43655619  0.91164993  0.19073235    -0.23900
H821        H  0.40913989  0.72724038  0.17505297     0.09600
H822        H  0.44222585  0.78819697  0.19256587     0.13200
H823        H  0.33667521  0.75842639  0.14234449     0.11900
H824        H  0.34375393  0.82034394  0.14831006     0.13100
H825        H  0.37675154  0.88340593  0.16453566     0.12100
H826        H  0.47633891  0.84530179  0.20197777     0.09200
H827        H  0.00629282  0.90740153  0.21794643     0.12500
H828        H  0.42559237  0.93052469  0.18817958     0.14400
C829        C  0.38261115  0.63102404  0.15636153    -0.01100
C830        C  0.36193567  0.60348739  0.17192144    -0.09200
C831        C  0.37731912  0.58385663  0.18213746    -0.18000
C832        C  0.41424787  0.59123788  0.17710808     0.04400
C833        C  0.43557404  0.62010452  0.16176149     0.18600
C834        C  0.41981295  0.63980181  0.15174145    -0.19400
C835        C  0.47235468  0.62883711  0.15629635    -0.20700
C836        C  0.48860909  0.60968253  0.16581072    -0.19200
C837        C  0.46849497  0.58110768  0.18099256     0.20000
C838        C  0.43086541  0.57123356  0.18675278     0.02100
C839        C  0.41161145  0.54178835  0.20192983    -0.14000
C840        C  0.42937607  0.52397109  0.21146354    -0.11700
C841        C  0.46695227  0.53485427  0.20640922     0.01600
C842        C  0.48603936  0.56278583  0.19073569    -0.23900
H843        H  0.33313373  0.59612229  0.17567789     0.09600
H844        H  0.35939732  0.56276278  0.19373633     0.13200
H845        H  0.43625575  0.66152154  0.13993278     0.11900
H846        H  0.48873437  0.65072265  0.14456862     0.13100
H847        H  0.01722196  0.61736405  0.16128510     0.12100
H848        H  0.38288584  0.53206433  0.20693035     0.09200
H849        H  0.40873406  0.99981951  0.22355719     0.12500
H850        H  0.01509314  0.57125802  0.18672448     0.14400
C851        C  0.08198489  0.53725033  0.20482767    -0.01100
C852        C  0.08803873  0.51556699  0.18985570    -0.09200
C853        C  0.12333906  0.53033928  0.17977336    -0.14800
C854        C  0.15375785  0.56752455  0.18442636     0.04400
C855        C  0.14667948  0.58989709  0.19897741     0.18600
C856        C  0.11103246  0.57474211  0.20885016    -0.19400
C857        C  0.17541015  0.62704822  0.20392323    -0.20700
C858        C  0.21119011  0.64267843  0.19469382    -0.19200
C859        C  0.21928245  0.62144758  0.18043026     0.20000
C860        C  0.19083734  0.58340866  0.17520660     0.02100
C861        C  0.20087554  0.56306953  0.16100386    -0.14000
C862        C  0.23694168  0.58037302  0.15168777    -0.11700
C863        C  0.26407061  0.61839205  0.15613261     0.01600
C864        C  0.25549542  0.63839829  0.17099200    -0.23900
H865        H  0.06584763  0.48650904  0.18660511     0.09600
H866        H  0.12608235  0.51177617  0.16864244     0.13200
H867        H  0.10616604  0.59171322  0.22029832     0.11900
H868        H  0.17015796  0.64418132  0.21502424     0.13100
H869        H  0.23271602  0.67163713  0.19874548     0.12100
H870        H  0.18135517  0.53391688  0.15656433     0.09200
H871        H  0.24333235  0.56435156  0.14039493     0.12500
H872        H  0.27648974  0.66786932  0.17442095     0.14400
C873        C  0.27105522  0.63513777  0.35031966    -0.01100
C874        C  0.26915969  0.66073904  0.36427323    -0.09200
C875        C  0.24074573  0.64788705  0.37973350    -0.18000
C876        C  0.21382627  0.60863387  0.38192452     0.04400
C877        C  0.21647748  0.58284349  0.36775375     0.18600
C878        C  0.24466204  0.59634678  0.35196446    -0.19400
C879        C  0.19156511  0.54366031  0.36972523    -0.20700
C880        C  0.16398634  0.52933390  0.38555383    -0.19200
C881        C  0.16023349  0.55390408  0.39951923     0.20000
C882        C  0.18478548  0.59394394  0.39782831     0.02100
C883        C  0.17890364  0.61740898  0.41201098    -0.14000
C884        C  0.14969864  0.60164473  0.42710507    -0.11700
C885        C  0.12581832  0.56214664  0.42873045     0.01600
C886        C  0.13155950  0.53851170  0.41500215    -0.23900
H887        H  0.29009392  0.69082105  0.36334990     0.09600
H888        H  0.24123408  0.66923202  0.39001554     0.13200
H889        H  0.24705363  0.57660066  0.34143427     0.11900
H890        H  0.19365278  0.52391713  0.35906832     0.13100
H891        H  0.14521975  0.49877916  0.38676824     0.12100
H892        H  0.19588592  0.64799456  0.41161776     0.09200
H893        H  0.14572728  0.62051298  0.43749152     0.12500
H894        H  0.11294209  0.50788693  0.41595042     0.14400
C895        C  0.38271785  0.73872868  0.34758421    -0.01100
C896        C  0.36329542  0.75837149  0.34939587    -0.09200
C897        C  0.37469455  0.78735843  0.36445243    -0.18000
C898        C  0.40621720  0.79753167  0.37802934     0.04400
C899        C  0.42710675  0.77878315  0.37504312     0.18600
C900        C  0.41474878  0.74913181  0.36017934    -0.19400
C901        C  0.45978692  0.78927245  0.38715640    -0.20700
C902        C  0.47209518  0.81788085  0.40238903    -0.19200
C903        C  0.45133638  0.83579138  0.40631819     0.20000
C904        C  0.41774455  0.82550573  0.39446081     0.02100
C905        C  0.39681124  0.84312136  0.39989575    -0.14000
C906        C  0.40943602  0.87065127  0.41598026    -0.11700
C907        C  0.44338678  0.88172146  0.42698299     0.01600
C908        C  0.46398722  0.86390962  0.42215241    -0.23900
H909        H  0.33832727  0.75024544  0.33964605     0.09600
H910        H  0.35826532  0.80113320  0.36512691     0.13200
H911        H  0.42959254  0.73361891  0.35861025     0.11900
H912        H  0.47598296  0.77533317  0.38479037     0.13100
H913        H  0.99770439  0.82560299  0.41143070     0.12100
H914        H  0.37039798  0.83598839  0.39216861     0.09200
H915        H  0.39294763  0.88390145  0.41948591     0.12500
H916        H  0.99005108  0.87190653  0.43080136     0.14400
C917        C  0.44891969  0.55720107  0.43050827    -0.01100
C918        C  0.41044624  0.54597854  0.43158568    -0.09200
C919        C  0.39424962  0.55826677  0.41625789    -0.18000
C920        C  0.41602250  0.58166454  0.39899021     0.04400
C921        C  0.45516680  0.59307581  0.39806456     0.18600
C922        C  0.47126012  0.58120033  0.41389165    -0.19400
C923        C  0.47792337  0.61587773  0.38121651    -0.20700
C924        C  0.46278622  0.62804951  0.36531226    -0.19200
C925        C  0.42454443  0.61779760  0.36589791     0.20000
C926        C  0.40046784  0.59419206  0.38265418     0.02100
C927        C  0.36199280  0.58455922  0.38243071    -0.14000
C928        C  0.34850341  0.59893702  0.36675115    -0.11700
C929        C  0.37257470  0.62276524  0.35067417     0.01600
C930        C  0.41040316  0.63175477  0.35008473    -0.23900
H931        H  0.38649140  0.02169948  0.44263914     0.09600
H932        H  0.36449193  0.54853528  0.41828188     0.13200
H933        H  0.50102658  0.58957741  0.41285253     0.11900
H934        H  0.00772287  0.62443159  0.38035207     0.13100
H935        H  0.48121191  0.64588903  0.35255090     0.12100
H936        H  0.34170296  0.56654455  0.39433995     0.09200
H937        H  0.31913860  0.59190261  0.36735136     0.12500
H938        H  0.42913088  0.65073141  0.33773661     0.14400
C939        C  0.46515627  0.92136884  0.25234128    -0.01100
C940        C  0.48649606  0.91533794  0.26761560    -0.09200
C941        C  0.47207849  0.87962912  0.27719724    -0.18000
C942        C  0.43567069  0.84870525  0.27162522     0.04400
C943        C  0.41347839  0.85567701  0.25684900     0.18600
C944        C  0.42815230  0.89181211  0.24761668    -0.19400
C945        C  0.37694426  0.82645082  0.25115338    -0.20700
C946        C  0.36154226  0.79042150  0.26014416    -0.19200
C947        C  0.38253375  0.78252663  0.27477356     0.20000
C948        C  0.42026118  0.81132182  0.28035565     0.02100
C949        C  0.44084026  0.80138719  0.29446205    -0.14000
C950        C  0.42376247  0.76535236  0.30376396    -0.11700
C951        C  0.38574822  0.73811300  0.29942506     0.01600
C952        C  0.36568733  0.74627739  0.28430569    -0.23900
H953        H  0.51504732  0.93795382  0.27156739     0.09600
H954        H  0.49020636  0.87706309  0.28874291     0.13200
H955        H  0.41117008  0.89671938  0.23616396     0.11900
H956        H  0.36002184  0.83159124  0.23978497     0.13100
H957        H  0.33293066  0.76859586  0.25567247     0.12100
H958        H  0.47000636  0.82092236  0.29881722     0.09200
H959        H  0.44002068  0.75906759  0.31498951     0.12500
H960        H  0.33632640  0.72506699  0.28080075     0.14400
C961        C  0.37524553  0.62101969  0.30171806    -0.01100
C962        C  0.40286915  0.64175709  0.28627568    -0.09200
C963        C  0.42320851  0.62676818  0.27670827    -0.18000
C964        C  0.41635282  0.59023133  0.28234217     0.04400
C965        C  0.38671607  0.56847370  0.29717170     0.18600
C966        C  0.36647670  0.58393814  0.30663656    -0.19400
C967        C  0.37774208  0.53158837  0.30264917    -0.20700
C968        C  0.39728876  0.51555979  0.29350156    -0.19200
C969        C  0.42681981  0.53628840  0.27897505     0.20000
C970        C  0.43739434  0.57428919  0.27357793     0.02100
C971        C  0.46857740  0.59463973  0.25962727    -0.14000
C972        C  0.48650478  0.57706742  0.25022133    -0.11700
C973        C  0.47396583  0.53876898  0.25428742     0.01600
C974        C  0.44520006  0.51891916  0.26933768    -0.23900
H975        H  0.40984034  0.67037049  0.28218904     0.09600
H976        H  0.44419132  0.64453334  0.26505493     0.13200
H977        H  0.34443641  0.56746036  0.31824814     0.11900
H978        H  0.35519439  0.51487109  0.31394789     0.13100
H979        H  0.38920552  0.48671558  0.29780054     0.12100
H980        H  0.47950518  0.62399040  0.25546737     0.09200
H981        H  0.50939141  0.59305186  0.23897427     0.12500
H982        H  0.42904537  0.98695044  0.27190360     0.14400
C983        C  0.08291151  0.53327649  0.25277083    -0.01100
C984        C  0.10820459  0.52064735  0.24851492    -0.09200
C985        C  0.14411499  0.53811590  0.25805360    -0.18000
C986        C  0.15593474  0.56896092  0.27234866     0.04400
C987        C  0.12932276  0.58038958  0.27744021     0.18600
C988        C  0.09312551  0.56239957  0.26771430    -0.19400
C989        C  0.13930364  0.61022224  0.29186296    -0.20700
C990        C  0.17522981  0.62919004  0.30124032    -0.19200
C991        C  0.20225711  0.61908037  0.29629196     0.20000
C992        C  0.19313816  0.58892723  0.28170528     0.02100
C993        C  0.22183156  0.58039437  0.27700727    -0.14000
C994        C  0.25755160  0.60021361  0.28684553    -0.11700
C995        C  0.26583990  0.62895526  0.30168114     0.01600
C996        C  0.23833259  0.63879265  0.30599706    -0.23900
H997        H  0.10045753  0.49772892  0.23721511     0.09600
H998        H  0.16207576  0.52705006  0.25371979     0.13200
H999        H  0.07347654  0.57210368  0.27106199     0.11900
H1000       H  0.11920696  0.61903342  0.29587335     0.13100
H1001       H  0.18199963  0.65210934  0.31238928     0.12100
H1002       H  0.21751386  0.55839299  0.26589999     0.09200
H1003       H  0.27843654  0.59217797  0.28335950     0.12500
H1004       H  0.24491323  0.66159031  0.31721056     0.14400
C1005       C  0.06189098  0.61608548  0.92775101    -0.01100
C1006       C  0.03788388  0.62793762  0.91929934    -0.09200
C1007       C  0.05049887  0.65550992  0.90330499    -0.18000
C1008       C  0.08785800  0.67236241  0.89515328     0.04400
C1009       C  0.11250811  0.66105268  0.90416807     0.18600
C1010       C  0.09934149  0.63306925  0.92020342    -0.19400
C1011       C  0.15013211  0.67770032  0.89710864    -0.20700
C1012       C  0.16402036  0.70574781  0.88142907    -0.19200
C1013       C  0.14043017  0.71738343  0.87220033     0.20000
C1014       C  0.10178814  0.70040253  0.87863151     0.02100
C1015       C  0.07888960  0.71246396  0.86831775    -0.14000
C1016       C  0.09434202  0.74161936  0.85319067    -0.11700
C1017       C  0.13267780  0.75918515  0.84776173     0.01600
C1018       C  0.15544621  0.74652761  0.85686610    -0.23900
H1019       H  0.00883555  0.61541669  0.92482183     0.09600
H1020       H  0.03027916  0.66303156  0.89773006     0.13200
H1021       H  0.11826814  0.62424258  0.92665098     0.11900
H1022       H  0.16909345  0.66924015  0.90392695     0.13100
H1023       H  0.19345179  0.71853370  0.87653966     0.12100
H1024       H  0.04912728  0.70035982  0.87175414     0.09200
H1025       H  0.07655609  0.75130241  0.84613430     0.12500
H1026       H  0.18506837  0.75990857  0.85227175     0.14400
C1027       C  0.24109534  0.87273968  0.85002329    -0.01100
C1028       C  0.26860910  0.91142504  0.84884899    -0.09200
C1029       C  0.29836973  0.92767200  0.86370239    -0.18000
C1030       C  0.30129986  0.90533989  0.88009741     0.04400
C1031       C  0.27425344  0.86567279  0.88028836     0.18600
C1032       C  0.24430618  0.85007102  0.86558571    -0.19400
C1033       C  0.27692720  0.84175887  0.89528345    -0.20700
C1034       C  0.30589640  0.85645146  0.91035348    -0.19200
C1035       C  0.33210751  0.89553183  0.91117160     0.20000
C1036       C  0.32991016  0.92072250  0.89631055     0.02100
C1037       C  0.35591825  0.96016859  0.89866634    -0.14000
C1038       C  0.38360788  0.97379001  0.91472378    -0.11700
C1039       C  0.38653941  0.94855242  0.92865708     0.01600
C1040       C  0.36050529  0.90953608  0.92688244    -0.23900
H1041       H  0.26649529  0.92926203  0.83675836     0.09600
H1042       H  0.31861308  0.95765145  0.86194748     0.13200
H1043       H  0.22315959  0.82005252  0.86633635     0.11900
H1044       H  0.25651976  0.81142212  0.89530312     0.13100
H1045       H  0.30743777  0.83718360  0.92168211     0.12100
H1046       H  0.35534857  0.98117767  0.88848462     0.09200
H1047       H  0.40345757  0.00412441  0.91586227     0.12500
H1048       H  0.36230356  0.88991211  0.93784514     0.14400
C1049       C  0.05799940  0.94066934  0.92816519    -0.01100
C1050       C  0.08683152  0.96575256  0.91429609    -0.09200
C1051       C  0.10133439  0.95229643  0.89876992    -0.18000
C1052       C  0.08773453  0.91300941  0.89675540     0.04400
C1053       C  0.05971481  0.88772722  0.91152328     0.18600
C1054       C  0.04454138  0.90160982  0.92675112    -0.19400
C1055       C  0.04728394  0.84885964  0.91108158    -0.20700
C1056       C  0.06224586  0.83459576  0.89632903    -0.19200
C1057       C  0.08897015  0.85862920  0.88119209     0.20000
C1058       C  0.10144000  0.89805594  0.88084565     0.02100
C1059       C  0.12685069  0.92074353  0.86446524    -0.14000
C1060       C  0.14039346  0.90515026  0.84960599    -0.11700
C1061       C  0.12909296  0.86669528  0.85060928     0.01600
C1062       C  0.10339387  0.84352369  0.86636163    -0.23900
H1063       H  0.09785074  0.99609668  0.91516522     0.09600
H1064       H  0.12357328  0.97345999  0.88882168     0.13200
H1065       H  0.02269988  0.88212709  0.93769910     0.11900
H1066       H  0.02623596  0.82946153  0.92239669     0.13100
H1067       H  0.05250794  0.80446393  0.89659465     0.12100
H1068       H  0.13655693  0.95051645  0.86258190     0.09200
H1069       H  0.16041350  0.92337669  0.83751126     0.12500
H1070       H  0.09457566  0.81362534  0.86700207     0.14400
C1071       C  0.24414489  0.87237362  0.80157330    -0.01100
C1072       C  0.26935575  0.85986478  0.80643905    -0.09200
C1073       C  0.30519441  0.87677411  0.79705973    -0.18000
C1074       C  0.31698136  0.90683677  0.78221507     0.04400
C1075       C  0.29046136  0.91807336  0.77644638     0.18600
C1076       C  0.25432420  0.90070821  0.78610562    -0.19400
C1077       C  0.30043605  0.94698317  0.76135183    -0.20700
C1078       C  0.33632099  0.96525229  0.75199674    -0.19200
C1079       C  0.36323507  0.95529441  0.75762778     0.20000
C1080       C  0.35403199  0.92602069  0.77286912     0.02100
C1081       C  0.38239085  0.91728786  0.77810827    -0.14000
C1082       C  0.41765442  0.93564759  0.76793100    -0.11700
C1083       C  0.42601835  0.96332527  0.75238782     0.01600
C1084       C  0.39914294  0.97395290  0.74780092    -0.23900
H1085       H  0.26151247  0.83724947  0.81798576     0.09600
H1086       H  0.32295947  0.86576711  0.80188208     0.13200
H1087       H  0.23474032  0.91019765  0.78218774     0.11900
H1088       H  0.28036798  0.95557155  0.75677789     0.13100
H1089       H  0.34309713  0.98739671  0.74028424     0.12100
H1090       H  0.37810245  0.89604298  0.78973006     0.09200
H1091       H  0.43777720  0.92686563  0.77161377     0.12500
H1092       H  0.40574553  0.99578449  0.73589779     0.14400
C1093       C  0.12607618  0.86848725  0.80191468    -0.01100
C1094       C  0.08851419  0.85739206  0.80705755    -0.09200
C1095       C  0.07084495  0.87546862  0.79783209    -0.18000
C1096       C  0.09025775  0.90532387  0.78291508     0.04400
C1097       C  0.12756419  0.91483611  0.77674139     0.18600
C1098       C  0.14502326  0.89634921  0.78622591    -0.19400
C1099       C  0.14742706  0.94317192  0.76140322    -0.20700
C1100       C  0.13112973  0.96242072  0.75210584    -0.19200
C1101       C  0.09477112  0.95421444  0.75812702     0.20000
C1102       C  0.07393384  0.92584169  0.77378714     0.02100
C1103       C  0.03776905  0.91947338  0.77969527    -0.14000
C1104       C  0.02205037  0.93867403  0.76948224    -0.11700
C1105       C  0.04161601  0.96475680  0.75313591     0.01600
C1106       C  0.07875338  0.97368759  0.74824061    -0.23900
H1107       H  0.07294587  0.83503929  0.81868319     0.09600
H1108       H  0.04204635  0.86548473  0.80276321     0.13200
H1109       H  0.17390597  0.90469844  0.78200669     0.11900
H1110       H  0.17576682  0.95045916  0.75653003     0.13100
H1111       H  0.14712341  0.98394693  0.74012486     0.12100
H1112       H  0.02069877  0.89951361  0.79196944     0.09200
H1113       H  0.49381099  0.93187175  0.77386079     0.12500
H1114       H  0.09458890  0.99476314  0.73601264     0.14400
C1115       C  0.13353236  0.76013205  0.79961407    -0.01100
C1116       C  0.10177628  0.74982951  0.78675159    -0.09200
C1117       C  0.08227455  0.71389253  0.77714174    -0.18000
C1118       C  0.09419346  0.68720440  0.78023131     0.04400
C1119       C  0.12775724  0.69889719  0.79245143     0.18600
C1120       C  0.14703147  0.73506606  0.80190628    -0.19400
C1121       C  0.14152629  0.67419565  0.79553697    -0.20700
C1122       C  0.12260900  0.63786210  0.78678170    -0.19200
C1123       C  0.08915184  0.62512002  0.77498003     0.20000
C1124       C  0.07418765  0.64944833  0.77168686     0.02100
C1125       C  0.03979948  0.63478334  0.76006045    -0.14000
C1126       C  0.02214506  0.59829762  0.75126861    -0.11700
C1127       C  0.03804068  0.57530927  0.75377856     0.01600
C1128       C  0.07094324  0.58838375  0.76607660    -0.23900
H1129       H  0.09111823  0.76906246  0.78485405     0.09600
H1130       H  0.05774352  0.70768322  0.76764537     0.13200
H1131       H  0.17209330  0.74345437  0.81163476     0.11900
H1132       H  0.16715051  0.68305426  0.80480882     0.13100
H1133       H  0.13416999  0.61951389  0.78933568     0.12100
H1134       H  0.02606898  0.65092444  0.75726883     0.09200
H1135       H  0.99654865  0.58835863  0.74180579     0.12500
H1136       H  0.08329634  0.57054452  0.76787006     0.14400
C1137       C  0.06749054  0.61108067  0.53276424    -0.01100
C1138       C  0.08686147  0.60973058  0.55092428    -0.09200
C1139       C  0.09883362  0.63757631  0.56674761    -0.18000
C1140       C  0.09103681  0.66740020  0.56504580     0.04400
C1141       C  0.07117867  0.66840231  0.54654126     0.18600
C1142       C  0.06017131  0.64072068  0.53051045    -0.19400
C1143       C  0.06199348  0.69676322  0.54422531    -0.20700
C1144       C  0.07261685  0.72466015  0.55974787    -0.19200
C1145       C  0.09294403  0.72502574  0.57786630     0.20000
C1146       C  0.10226939  0.69630528  0.58093381     0.02100
C1147       C  0.12302958  0.69830618  0.59956188    -0.14000
C1148       C  0.13535360  0.72847772  0.61396501    -0.11700
C1149       C  0.12681803  0.75706834  0.61045999     0.01600
C1150       C  0.10496244  0.75471376  0.59265004    -0.23900
H1151       H  0.09271497  0.58688920  0.55291966     0.09600
H1152       H  0.11363835  0.63464059  0.58020139     0.13200
H1153       H  0.04465035  0.64145341  0.51659801     0.11900
H1154       H  0.04656784  0.69744641  0.53026953     0.13100
H1155       H  0.06535682  0.74645556  0.55741009     0.12100
H1156       H  0.13117251  0.67768204  0.60315155     0.09200
H1157       H  0.15292602  0.73024454  0.62740636     0.12500
H1158       H  0.09830560  0.77685867  0.58993314     0.14400
C1159       C  0.23859389  0.86651985  0.60759631    -0.01100
C1160       C  0.26820278  0.85955836  0.61118497    -0.09200
C1161       C  0.29844906  0.87296562  0.59685557    -0.18000
C1162       C  0.29955638  0.89330682  0.57823579     0.04400
C1163       C  0.26889987  0.89949785  0.57453724     0.18600
C1164       C  0.23910116  0.88635418  0.58922540    -0.19400
C1165       C  0.26778402  0.91826966  0.55605228    -0.20700
C1166       C  0.29638486  0.93060715  0.54085819    -0.19200
C1167       C  0.32712983  0.92520470  0.54403657     0.20000
C1168       C  0.32954843  0.90713706  0.56298089     0.02100
C1169       C  0.36208074  0.90405052  0.56591207    -0.14000
C1170       C  0.39078513  0.91803559  0.55064691    -0.11700
C1171       C  0.38780992  0.93496662  0.53184946     0.01600
C1172       C  0.35582862  0.93824836  0.52851871    -0.23900
H1173       H  0.26765528  0.84316747  0.62494886     0.09600
H1174       H  0.32000972  0.86615146  0.60057623     0.13200
H1175       H  0.21595209  0.89123384  0.58616103     0.11900
H1176       H  0.24439872  0.92300702  0.55321296     0.13100
H1177       H  0.29456380  0.94471085  0.52656518     0.12100
H1178       H  0.36662456  0.89163200  0.58001986     0.09200
H1179       H  0.41552120  0.91553495  0.55354599     0.12500
H1180       H  0.35389450  0.95211242  0.51412797     0.14400
C1181       C  0.13046685  0.86778295  0.60707983    -0.01100
C1182       C  0.09244062  0.84523397  0.60110678    -0.09200
C1183       C  0.07816827  0.85571692  0.58382879    -0.18000
C1184       C  0.10197898  0.88910491  0.57193178     0.04400
C1185       C  0.14044862  0.91231871  0.57861844     0.18600
C1186       C  0.15422428  0.90142999  0.59605831    -0.19400
C1187       C  0.16506201  0.94599732  0.56773093    -0.20700
C1188       C  0.15204921  0.95775562  0.55054092    -0.19200
C1189       C  0.11428016  0.93582000  0.54369219     0.20000
C1190       C  0.08890841  0.90067183  0.55392841     0.02100
C1191       C  0.05129481  0.87915385  0.54600022    -0.14000
C1192       C  0.03856414  0.89360852  0.52994541    -0.11700
C1193       C  0.06310598  0.92919641  0.52099887     0.01600
C1194       C  0.10117814  0.94964707  0.52728524    -0.23900
H1195       H  0.07411739  0.81870162  0.60936760     0.09600
H1196       H  0.04855088  0.83685959  0.58007178     0.13200
H1197       H  0.18377932  0.91873947  0.60085119     0.11900
H1198       H  0.19446073  0.96361138  0.57272384     0.13100
H1199       H  0.17153150  0.98442435  0.54271333     0.12100
H1200       H  0.03065797  0.85168062  0.55232296     0.09200
H1201       H  0.00891203  0.87775680  0.52519421     0.12500
H1202       H  0.11990927  0.97751191  0.52039947     0.14400
C1203       C  0.12543920  0.75934680  0.65912223    -0.01100
C1204       C  0.08625335  0.73465045  0.65683142    -0.09200
C1205       C  0.06817271  0.69908308  0.66673506    -0.18000
C1206       C  0.08902398  0.68691297  0.67908763     0.04400
C1207       C  0.12865603  0.71287578  0.68195819     0.18600
C1208       C  0.14630335  0.74885423  0.67217542    -0.19400
C1209       C  0.15069485  0.70225608  0.69392069    -0.20700
C1210       C  0.13447724  0.66601156  0.70269426    -0.19200
C1211       C  0.09577521  0.63952740  0.69980484     0.20000
C1212       C  0.07230556  0.64971511  0.68822830     0.02100
C1213       C  0.03319062  0.62213052  0.68631067    -0.14000
C1214       C  0.01810722  0.58613075  0.69549140    -0.11700
C1215       C  0.04143783  0.57620811  0.70658180     0.01600
C1216       C  0.08025340  0.60298016  0.70867035    -0.23900
H1217       H  0.06983026  0.74250201  0.64670568     0.09600
H1218       H  0.03798551  0.68132348  0.66384961     0.13200
H1219       H  0.17678958  0.76776863  0.67361929     0.11900
H1220       H  0.18087747  0.72196313  0.69622667     0.13100
H1221       H  0.15241076  0.65854583  0.71170990     0.12100
H1222       H  0.01318625  0.62775856  0.67823409     0.09200
H1223       H  0.48786245  0.56678686  0.69485874     0.12500
H1224       H  0.09814787  0.59558701  0.71784235     0.14400
C1225       C  0.42590021  0.95792102  0.70421935    -0.01100
C1226       C  0.42055380  0.97633352  0.68690509    -0.09200
C1227       C  0.38507475  0.96075555  0.67690596    -0.18000
C1228       C  0.35363141  0.92600088  0.68404632     0.04400
C1229       C  0.36001441  0.90608270  0.70061188     0.18600
C1230       C  0.39604800  0.92173071  0.71014101    -0.19400
C1231       C  0.33024564  0.87102388  0.70787204    -0.20700
C1232       C  0.29419891  0.85495722  0.69880578    -0.19200
C1233       C  0.28688497  0.87385162  0.68250008     0.20000
C1234       C  0.31628670  0.91005314  0.67519928     0.02100
C1235       C  0.30689737  0.92877440  0.65946216    -0.14000
C1236       C  0.27066376  0.91110877  0.65034531    -0.11700
C1237       C  0.24276298  0.87423972  0.65642102     0.01600
C1238       C  0.25051374  0.85640977  0.67311771    -0.23900
H1239       H  0.44631519  0.50813330  0.68426474     0.09600
H1240       H  0.38308138  0.97676213  0.66379120     0.13200
H1241       H  0.40047445  0.90639324  0.72288586     0.11900
H1242       H  0.33491791  0.85583880  0.72060501     0.13100
H1243       H  0.27188073  0.82752833  0.70457728     0.12100
H1244       H  0.32694694  0.95693230  0.65376902     0.09200
H1245       H  0.26472097  0.92589471  0.63794147     0.12500
H1246       H  0.22874740  0.82826459  0.67819802     0.14400
C1247       C  0.13223398  0.87515298  0.65567999    -0.01100
C1248       C  0.14246003  0.91226267  0.64990031    -0.09200
C1249       C  0.12472760  0.93013125  0.65917929    -0.18000
C1250       C  0.09621355  0.91143804  0.67485034     0.04400
C1251       C  0.08756245  0.87456330  0.68157943     0.18600
C1252       C  0.10564485  0.85686068  0.67200254    -0.19400
C1253       C  0.06048383  0.85535612  0.69757589    -0.20700
C1254       C  0.04139974  0.87171566  0.70686602    -0.19200
C1255       C  0.04870533  0.90757240  0.70028482     0.20000
C1256       C  0.07616369  0.92802677  0.68416433     0.02100
C1257       C  0.08215453  0.96408686  0.67806076    -0.14000
C1258       C  0.06313224  0.97990200  0.68833782    -0.11700
C1259       C  0.03742723  0.96024846  0.70480593     0.01600
C1260       C  0.02915530  0.92343115  0.71005382    -0.23900
H1261       H  0.16417583  0.92751639  0.63797057     0.09600
H1262       H  0.13395804  0.95854568  0.65370172     0.13200
H1263       H  0.09804716  0.82828355  0.67669740     0.11900
H1264       H  0.05393974  0.82742170  0.70290683     0.13100
H1265       H  0.52071627  0.85617021  0.71929377     0.12100
H1266       H  0.10175986  0.98105083  0.66562296     0.09200
H1267       H  0.07034555  0.50748623  0.68391845     0.12500
H1268       H  0.50843850  0.90768571  0.72244690     0.14400
C1269       C  0.67220361  0.33469235  0.61341412     0.45600
H1270       H  0.67260579  0.33420108  0.59565629    -0.03400
C1271       C  0.67102481  0.33588400  0.65501441     0.45700
H1272       H  0.67066901  0.33655893  0.67278137    -0.03400
C1273       C  0.71181233  0.35522828  0.62325960    -0.17100
C1274       C  0.65259345  0.35478409  0.62233235    -0.16900
C1275       C  0.65167892  0.29504097  0.62337564    -0.17200
C1276       C  0.71154646  0.35625498  0.64526465    -0.17200
C1277       C  0.65162365  0.35583671  0.64428635    -0.16800
C1278       C  0.65068637  0.29524102  0.64538489    -0.17100
C1279       C  0.66770949  0.33273708  0.80268715     0.45600
H1280       H  0.66714364  0.33289254  0.78491302    -0.03400
C1281       C  0.66871158  0.33150057  0.84441990     0.45700
H1282       H  0.66926965  0.33105096  0.86221939    -0.03400
C1283       C  0.64780133  0.29231764  0.81249611    -0.17100
C1284       C  0.70818502  0.35275976  0.81243315    -0.16900
C1285       C  0.64777245  0.35196347  0.81336143    -0.17200
C1286       C  0.64865044  0.29216902  0.83440034    -0.17200
C1287       C  0.70805315  0.35202841  0.83437314    -0.16800
C1288       C  0.64869465  0.35119304  0.83533699    -0.17100
C1289       C  0.50115144  0.99883682  0.74949541     0.45600
H1290       H  0.50100464  0.99918843  0.76727628    -0.03400
C1291       C  0.50159283  0.99893645  0.70764604     0.45700
H1292       H  0.50569046  0.50067086  0.69117041    -0.03400
C1293       C  0.96405548  0.47926116  0.74040459    -0.17100
C1294       C  0.52056914  0.03867183  0.73957285    -0.16900
C1295       C  0.52522780  0.48160580  0.74124099    -0.17200
C1296       C  0.96489254  0.47916803  0.71837399    -0.17200
C1297       C  0.52140908  0.03906916  0.71762659    -0.16800
C1298       C  0.52511287  0.48084396  0.71916037    -0.17100
C1299       C  0.83733599  0.16153765  0.30396929     0.45600
H1300       H  0.83652211  0.16040028  0.28620361    -0.03400
C1301       C  0.83920593  0.16424031  0.34563408     0.45700
H1302       H  0.84007692  0.16557260  0.36342675    -0.03400
C1303       C  0.86122194  0.20235433  0.31311853    -0.17100
C1304       C  0.79760251  0.14470789  0.31453715    -0.16900
C1305       C  0.85463485  0.13936138  0.31433905    -0.17200
C1306       C  0.86178568  0.20309466  0.33504276    -0.17200
C1307       C  0.79928009  0.14681624  0.33647886    -0.16800
C1308       C  0.85504079  0.14072860  0.33630405    -0.17100
C1309       C  0.83765356  0.16390999  0.11390939     0.45600
H1310       H  0.83804691  0.16339559  0.09612635    -0.03400
C1311       C  0.83700597  0.16516338  0.15547021     0.45700
H1312       H  0.83671570  0.16573253  0.17324052    -0.03400
C1313       C  0.79801196  0.14032139  0.12330111    -0.17100
C1314       C  0.86116697  0.14888575  0.12414715    -0.16900
C1315       C  0.85321634  0.20358944  0.12297284    -0.17200
C1316       C  0.79707399  0.14088037  0.14527598    -0.17200
C1317       C  0.86071154  0.14877602  0.14613465    -0.16800
C1318       C  0.85368077  0.20492120  0.14495325    -0.17100
C1319       C  0.50755216  0.49803644  0.25016367     0.45600
H1320       H  0.50800188  0.49745226  0.26793724    -0.03400
C1321       C  0.50659171  0.49952903  0.20830080     0.45700
H1322       H  0.50622145  0.50001918  0.19052358    -0.03400
C1323       C  0.54308756  0.01760367  0.23990688    -0.17100
C1324       C  0.98683033  0.45821775  0.23981029    -0.16900
C1325       C  0.98344303  0.01724846  0.24114978    -0.17200
C1326       C  0.54237608  0.01880917  0.21792687    -0.17200
C1327       C  0.98675628  0.45918696  0.21779528    -0.16800
C1328       C  0.98195743  0.01740864  0.21915125    -0.17100
O1329       O  0.51476257  0.07411538  0.95254747    -0.78300
C1330       C  0.91793692  0.45695520  0.94258791     0.82700
O1331       O  0.97171585  0.02162730  0.02343566    -0.79500
O1332       O  0.95284599  0.40532587  0.99302587    -0.80900
O1333       O  0.56448975  0.49002758  0.94875554    -0.80700
O1334       O  0.56857206  0.07320878  0.95095352    -0.79400
Zn1335     Zn  0.97832755  0.02925331  0.97015850     1.55700
O1336       O  0.51038374  0.43378949  0.94938801    -0.80800
Cd1337     Cd  0.55581246  0.02626741  0.96937541     1.59700
Cd1338     Cd  0.50253854  0.00004781  0.01083988     1.59600
O1339       O  0.59403145  0.04326521  0.99465938    -0.80800
O1340       O  0.50209293  0.00089043  0.97937162    -1.91300
Cd1341     Cd  0.97453950  0.44409982  0.96786182     1.59900
O1342       O  0.55629058  0.03117153  0.02285296    -0.80700
O1343       O  0.92995170  0.43513367  0.94851516    -0.79400
C1344       C  0.95850922  0.04096337  0.01529694     0.83200
C1345       C  0.54861315  0.08776503  0.94576705     0.82800
O1346       O  0.93311892  0.49114144  0.94917486    -0.78300
C1347       C  0.54442972  0.45544459  0.94290718     0.83600
O1348       O  0.96025294  0.04760082  0.99525326    -0.78400
C1349       C  0.58912103  0.04458019  0.01470640     0.83800
C1350       C  0.95821952  0.41079985  0.01312831     0.84100
O1351       O  0.97735150  0.44390401  0.02112077    -0.80800
O1352       O  0.99746242  0.42946982  0.44741196    -0.78300
C1353       C  0.58887761  0.04498630  0.44476116     0.82700
O1354       O  0.53948873  0.46616663  0.51909482    -0.79500
O1355       O  0.54591215  0.08561888  0.49833381    -0.80900
O1356       O  0.93888465  0.00502209  0.45223442    -0.80700
O1357       O  0.94153195  0.42602513  0.45015838    -0.79400
Zn1358     Zn  0.53411002  0.47254827  0.46607592     1.55700
O1359       O  0.99422920  0.06010451  0.45169559    -0.80800
Cd1360     Cd  0.95422920  0.47133117  0.47026880     1.59700
Cd1361     Cd  0.51186581  0.49367769  0.51035130     1.59600
O1362       O  0.91837228  0.45253656  0.49673715    -0.80800
O1363       O  0.50900447  0.49703152  0.47891513    -1.91300
Cd1364     Cd  0.52954282  0.05083733  0.47132585     1.59900
O1365       O  0.95876624  0.46508641  0.52378054    -0.80700
O1366       O  0.57723150  0.06568656  0.45299666    -0.79400
C1367       C  0.55516706  0.45160609  0.50838767     0.83200
C1368       C  0.96243917  0.41414984  0.44245115     0.82800
O1369       O  0.57268091  0.00953092  0.44874418    -0.78300
C1370       C  0.95971121  0.03915777  0.44576525     0.83600
O1371       O  0.55564147  0.45184474  0.48801855    -0.78400
C1372       C  0.92515896  0.45170930  0.51661880     0.83800
C1373       C  0.54807183  0.07868294  0.51806539     0.84100
O1374       O  0.53585423  0.04506388  0.52488121    -0.80800
C1375       C  0.62194041  0.06136268  0.02927416    -0.01100
C1376       C  0.65371017  0.05819405  0.02505236    -0.09200
C1377       C  0.68283076  0.07026705  0.04014262    -0.18000
C1378       C  0.68102080  0.08628898  0.05986253     0.04400
C1379       C  0.64985155  0.09174358  0.06332482     0.18600
C1380       C  0.62045844  0.07871572  0.04825029    -0.19400
C1381       C  0.64802339  0.10987159  0.08187256    -0.20700
C1382       C  0.67657842  0.12264873  0.09721739    -0.19200
C1383       C  0.70683046  0.11630163  0.09470984     0.20000
C1384       C  0.70907533  0.09731775  0.07619633     0.02100
C1385       C  0.73897450  0.08966199  0.07499161    -0.14000
C1386       C  0.76635006  0.10183859  0.09105274    -0.11700
C1387       C  0.76500956  0.12211460  0.10868321     0.01600
C1388       C  0.73508206  0.12909538  0.11054641    -0.23900
H1389       H  0.65543996  0.04514162  0.01034997     0.09600
H1390       H  0.70638214  0.06683023  0.03587658     0.13200
H1391       H  0.59616801  0.08192169  0.05133466     0.11900
H1392       H  0.62447236  0.11443987  0.08445856     0.13100
H1393       H  0.67466059  0.13700151  0.11129738     0.12100
H1394       H  0.74185885  0.07414089  0.06195761     0.09200
H1395       H  0.78932319  0.09610190  0.08946088     0.12500
H1396       H  0.73439568  0.14545490  0.12397466     0.14400
C1397       C  0.94217505  0.37855352  0.02807467    -0.01100
C1398       C  0.90707706  0.34566903  0.02419596    -0.09200
C1399       C  0.89069029  0.31701850  0.03967366    -0.18000
C1400       C  0.90948241  0.32044213  0.05936695     0.04400
C1401       C  0.94591861  0.35321530  0.06262569     0.18600
C1402       C  0.96149163  0.38198064  0.04722043    -0.19400
C1403       C  0.96677817  0.35715156  0.08120330    -0.20700
C1404       C  0.95247998  0.32873537  0.09660469    -0.19200
C1405       C  0.91642377  0.29642669  0.09411720     0.20000
C1406       C  0.89389502  0.29231613  0.07577461     0.02100
C1407       C  0.85674257  0.26030665  0.07471556    -0.14000
C1408       C  0.84335385  0.23273789  0.09070293    -0.11700
C1409       C  0.86645818  0.23599682  0.10808831     0.01600
C1410       C  0.90290894  0.26794795  0.10979782    -0.23900
H1411       H  0.89179105  0.34259495  0.00944480     0.09600
H1412       H  0.86360016  0.29246909  0.03568474     0.13200
H1413       H  0.98900042  0.40724569  0.05011439     0.11900
H1414       H  0.99464902  0.38211439  0.08367633     0.13100
H1415       H  0.96958730  0.33219083  0.11062585     0.12100
H1416       H  0.83735653  0.25588333  0.06185315     0.09200
H1417       H  0.81486976  0.20823576  0.08927965     0.12500
H1418       H  0.92105948  0.27022547  0.12305588     0.14400
C1419       C  0.88068785  0.13519370  0.11018526    -0.01100
C1420       C  0.90312147  0.15855439  0.09345458    -0.09200
C1421       C  0.91639992  0.14448488  0.07757969    -0.18000
C1422       C  0.90735699  0.10622922  0.07796606     0.04400
C1423       C  0.88656197  0.08334017  0.09579037     0.18600
C1424       C  0.87306013  0.09783409  0.11157894    -0.19400
C1425       C  0.87871710  0.04591694  0.09749949    -0.20700
C1426       C  0.89118767  0.03070170  0.08188038    -0.19200
C1427       C  0.91070512  0.05216062  0.06387042     0.20000
C1428       C  0.91827483  0.08992245  0.06135313     0.02100
C1429       C  0.93589598  0.10943607  0.04216392    -0.14000
C1430       C  0.94722277  0.09273554  0.02664913    -0.11700
C1431       C  0.94175941  0.05648342  0.02993065     0.01600
C1432       C  0.92297366  0.03612217  0.04838728    -0.23900
H1433       H  0.90949335  0.18769471  0.09233789     0.09600
H1434       H  0.93348998  0.16416469  0.06520827     0.13200
H1435       H  0.85541104  0.07966518  0.12446567     0.11900
H1436       H  0.86307713  0.02840172  0.11107168     0.13100
H1437       H  0.88435511  0.50027340  0.08112695     0.12100
H1438       H  0.94118681  0.13752395  0.03863888     0.09200
H1439       H  0.96161118  0.10880093  0.01242347     0.12500
H1440       H  0.91817322  0.00772086  0.05077371     0.14400
C1441       C  0.87088770  0.24094278  0.15728848    -0.01100
C1442       C  0.89966934  0.24891517  0.17206899    -0.09200
C1443       C  0.92047929  0.28487298  0.18144409    -0.18000
C1444       C  0.91292898  0.31410493  0.17630052     0.04400
C1445       C  0.88223786  0.30515103  0.16212593     0.18600
C1446       C  0.86158451  0.26882634  0.15279191    -0.19400
C1447       C  0.87254955  0.33257312  0.15725807    -0.20700
C1448       C  0.89219983  0.36855497  0.16654762    -0.19200
C1449       C  0.92273111  0.37837150  0.18045467     0.20000
C1450       C  0.93423914  0.35161472  0.18502066     0.02100
C1451       C  0.96662721  0.36360327  0.19812185    -0.14000
C1452       C  0.98491321  0.39949656  0.20758131    -0.11700
C1453       C  0.97151475  0.42447350  0.20444138     0.01600
C1454       C  0.94136928  0.41447466  0.19023575    -0.23900
H1455       H  0.90713226  0.22764614  0.17575723     0.09600
H1456       H  0.94228451  0.28887797  0.19263798     0.13200
H1457       H  0.83882893  0.26246043  0.14157055     0.11900
H1458       H  0.84923848  0.32595965  0.14642160     0.13100
H1459       H  0.88345986  0.38885407  0.16282374     0.12100
H1460       H  0.97837640  0.34584282  0.20149011     0.09200
H1461       H  0.50892038  0.40735306  0.21810045     0.12500
H1462       H  0.93135892  0.43411280  0.18759151     0.14400
C1463       C  0.87944939  0.13282083  0.15944703    -0.01100
C1464       C  0.85848962  0.10501525  0.17481692    -0.09200
C1465       C  0.87386837  0.08541709  0.18505990    -0.18000
C1466       C  0.91093863  0.09309271  0.18013144     0.04400
C1467       C  0.93270997  0.12280616  0.16530901     0.18600
C1468       C  0.91701813  0.14251347  0.15535456    -0.19400
C1469       C  0.96971677  0.13208953  0.16006499    -0.20700
C1470       C  0.98560204  0.11224202  0.16904437    -0.19200
C1471       C  0.96485225  0.08243184  0.18342382     0.20000
C1472       C  0.92714727  0.07232099  0.18917652     0.02100
C1473       C  0.90730308  0.04164637  0.20356194    -0.14000
C1474       C  0.92454734  0.02269308  0.21225502    -0.11700
C1475       C  0.96214632  0.03374550  0.20714219     0.01600
C1476       C  0.98184921  0.06303265  0.19233570    -0.23900
H1477       H  0.82945737  0.09724220  0.17825063     0.09600
H1478       H  0.85577471  0.06394473  0.19644440     0.13200
H1479       H  0.93363783  0.16462868  0.14377149     0.11900
H1480       H  0.98644553  0.15474290  0.14879961     0.13100
H1481       H  0.51433835  0.12019075  0.16462393     0.12100
H1482       H  0.87854023  0.03178767  0.20853679     0.09200
H1483       H  0.91387624  0.50197735  0.22328211     0.12500
H1484       H  0.51100445  0.07173378  0.18842503     0.14400
C1485       C  0.57754832  0.03726604  0.20479374    -0.01100
C1486       C  0.58471888  0.01576757  0.19028264    -0.09200
C1487       C  0.62038559  0.03110842  0.18056738    -0.14800
C1488       C  0.65007274  0.06872390  0.18512084     0.04400
C1489       C  0.64183961  0.09095307  0.19910727     0.18600
C1490       C  0.60584170  0.07516684  0.20867629    -0.19400
C1491       C  0.66977968  0.12858327  0.20378609    -0.20700
C1492       C  0.70586109  0.14480331  0.19481624    -0.19200
C1493       C  0.71511551  0.12367386  0.18115010     0.20000
C1494       C  0.68749658  0.08515306  0.17628949     0.02100
C1495       C  0.69863523  0.06481787  0.16281917    -0.14000
C1496       C  0.73486226  0.08252244  0.15373198    -0.11700
C1497       C  0.76122059  0.12091272  0.15774393     0.01600
C1498       C  0.75163019  0.14107021  0.17195537    -0.23900
H1499       H  0.56315011  0.98640756  0.18716101     0.09600
H1500       H  0.62396181  0.01265155  0.16978470     0.13200
H1501       H  0.60012344  0.09197007  0.21979026     0.11900
H1502       H  0.66365167  0.14563749  0.21444247     0.13100
H1503       H  0.72671745  0.17412040  0.19862217     0.12100
H1504       H  0.67989161  0.03531047  0.15880166     0.09200
H1505       H  0.74205023  0.06638944  0.14298607     0.12500
H1506       H  0.77203877  0.17082920  0.17507567     0.14400
C1507       C  0.76654856  0.13291877  0.35104298    -0.01100
C1508       C  0.76247533  0.15895418  0.36347561    -0.09200
C1509       C  0.73400350  0.14641154  0.37892674    -0.18000
C1510       C  0.70928107  0.10711544  0.38274055     0.04400
C1511       C  0.71450570  0.08089177  0.37039436     0.18600
C1512       C  0.74256334  0.09397984  0.35447325    -0.19400
C1513       C  0.69230211  0.04183005  0.37433987    -0.20700
C1514       C  0.66495640  0.02810782  0.39032150    -0.19200
C1515       C  0.65845504  0.05304316  0.40235242     0.20000
C1516       C  0.68007742  0.09287649  0.39858572     0.02100
C1517       C  0.67111352  0.11653210  0.41064810    -0.14000
C1518       C  0.64196087  0.10114284  0.42581881    -0.11700
C1519       C  0.62113121  0.06186914  0.42961297     0.01600
C1520       C  0.62987081  0.03812530  0.41791162    -0.23900
H1521       H  0.78171388  0.18920972  0.36133034     0.09600
H1522       H  0.73277345  0.16812542  0.38800290     0.13200
H1523       H  0.74676086  0.07396522  0.34524656     0.11900
H1524       H  0.69640205  0.02174821  0.36514402     0.13100
H1525       H  0.64842022  0.99769135  0.39310803     0.12100
H1526       H  0.68550548  0.14688782  0.40840419     0.09200
H1527       H  0.63553440  0.12009183  0.43447532     0.12500
H1528       H  0.61366993  0.00761905  0.42048407     0.14400
C1529       C  0.87888729  0.23768750  0.34818739    -0.01100
C1530       C  0.85981612  0.25754169  0.35074163    -0.09200
C1531       C  0.87239473  0.28668504  0.36579476    -0.18000
C1532       C  0.90479877  0.29683794  0.37859896     0.04400
C1533       C  0.92529687  0.27790846  0.37483610     0.18600
C1534       C  0.91169719  0.24800609  0.36004268    -0.19400
C1535       C  0.95894438  0.28864187  0.38602769    -0.20700
C1536       C  0.97271934  0.31782743  0.40099290    -0.19200
C1537       C  0.95238105  0.33591608  0.40569318     0.20000
C1538       C  0.91769223  0.32514286  0.39491306     0.02100
C1539       C  0.89706594  0.34261851  0.40125295    -0.14000
C1540       C  0.91111366  0.37068518  0.41705438    -0.11700
C1541       C  0.94619190  0.38244037  0.42690844     0.01600
C1542       C  0.96649142  0.36464639  0.42124208    -0.23900
H1543       H  0.83431925  0.24956694  0.34153263     0.09600
H1544       H  0.85628948  0.30074536  0.36700435     0.13200
H1545       H  0.92628787  0.23235397  0.35789166     0.11900
H1546       H  0.97486023  0.27456643  0.38306859     0.13100
H1547       H  0.49911888  0.32584552  0.40923128     0.12100
H1548       H  0.86978851  0.33488360  0.39450389     0.09200
H1549       H  0.89469416  0.38371548  0.42128160     0.12500
H1550       H  0.49339463  0.37307892  0.42901207     0.14400
C1551       C  0.94358873  0.05415288  0.43020646    -0.01100
C1552       C  0.90468888  0.04127968  0.43038748    -0.09200
C1553       C  0.88873476  0.05345155  0.41486876    -0.18000
C1554       C  0.91126578  0.07852157  0.39833690     0.04400
C1555       C  0.95074863  0.09120746  0.39815771     0.18600
C1556       C  0.96652935  0.07928247  0.41413826    -0.19400
C1557       C  0.97421598  0.11557093  0.38198860    -0.20700
C1558       C  0.95948346  0.12831676  0.36615119    -0.19200
C1559       C  0.92094301  0.11706452  0.36612952     0.20000
C1560       C  0.89615310  0.09167901  0.38210501     0.02100
C1561       C  0.85743314  0.08113646  0.38134760    -0.14000
C1562       C  0.84434120  0.09639030  0.36597870    -0.11700
C1563       C  0.86902723  0.12192241  0.35068840     0.01600
C1564       C  0.90715191  0.13178523  0.35053779    -0.23900
H1565       H  0.89275263  0.52748784  0.44434799     0.09600
H1566       H  0.85862735  0.04243547  0.41622094     0.13200
H1567       H  0.99660167  0.08874660  0.41372827     0.11900
H1568       H  0.50427262  0.12505669  0.38167107     0.13100
H1569       H  0.97846667  0.14749002  0.35397733     0.12100
H1570       H  0.83663538  0.06179732  0.39262739     0.09200
H1571       H  0.81473190  0.08860652  0.36619569     0.12500
H1572       H  0.92629429  0.15197637  0.33875392     0.14400
C1573       C  0.96897141  0.42193728  0.25224543    -0.01100
C1574       C  0.99089684  0.41340931  0.26576635    -0.09200
C1575       C  0.97536994  0.37723843  0.27512549    -0.18000
C1576       C  0.93702882  0.34839791  0.27129471     0.04400
C1577       C  0.91478700  0.35770454  0.25792237     0.18600
C1578       C  0.93078505  0.39408591  0.24866871    -0.19400
C1579       C  0.87669440  0.33057620  0.25368835    -0.20700
C1580       C  0.85981526  0.29444993  0.26273986    -0.19200
C1581       C  0.88062401  0.28430396  0.27615577     0.20000
C1582       C  0.91972763  0.31091317  0.28040255     0.02100
C1583       C  0.93952543  0.29889271  0.29380083    -0.14000
C1584       C  0.92075810  0.26293726  0.30343164    -0.11700
C1585       C  0.88186511  0.23762170  0.29999624     0.01600
C1586       C  0.86220686  0.24800211  0.28582294    -0.23900
H1587       H  0.02059837  0.43440442  0.26849831     0.09600
H1588       H  0.99406716  0.37263539  0.28511693     0.13200
H1589       H  0.91372654  0.40059765  0.23820581     0.11900
H1590       H  0.85968249  0.33745679  0.24341953     0.13100
H1591       H  0.83012243  0.27438137  0.25935102     0.12100
H1592       H  0.96926099  0.31682169  0.29743845     0.09200
H1593       H  0.93658017  0.25515711  0.31411796     0.12500
H1594       H  0.83212507  0.22851354  0.28314484     0.14400
C1595       C  0.87124788  0.12048759  0.30189302    -0.01100
C1596       C  0.89952054  0.14138304  0.28679906    -0.09200
C1597       C  0.91954117  0.12605275  0.27719815    -0.18000
C1598       C  0.91165961  0.08899560  0.28241471     0.04400
C1599       C  0.88124329  0.06706403  0.29677669     0.18600
C1600       C  0.86147306  0.08294588  0.30637840    -0.19400
C1601       C  0.87103926  0.02958595  0.30165549    -0.20700
C1602       C  0.89028035  0.01325091  0.29245984    -0.19200
C1603       C  0.92082246  0.03426644  0.27856366     0.20000
C1604       C  0.93249521  0.07275735  0.27371824     0.02100
C1605       C  0.96463777  0.09335307  0.26044093    -0.14000
C1606       C  0.98262765  0.07571513  0.25118368    -0.11700
C1607       C  0.96921749  0.03709480  0.25471710     0.01600
C1608       C  0.93924412  0.01680527  0.26904837    -0.23900
H1609       H  0.90721234  0.17031688  0.28303493     0.09600
H1610       H  0.94108661  0.14395651  0.26582192     0.13200
H1611       H  0.83895319  0.06639145  0.31772652     0.11900
H1612       H  0.84780602  0.01267866  0.31253040     0.13100
H1613       H  0.88127379  0.98398621  0.29630637     0.12100
H1614       H  0.97634314  0.12301191  0.25673459     0.09200
H1615       H  0.00627527  0.09194144  0.24041494     0.12500
H1616       H  0.93579828  0.48937896  0.27265949     0.14400
C1617       C  0.57886316  0.03290129  0.25248288    -0.01100
C1618       C  0.60335323  0.01903109  0.24892348    -0.09200
C1619       C  0.63921075  0.03617675  0.25858659    -0.18000
C1620       C  0.65183767  0.06804724  0.27220304     0.04400
C1621       C  0.62621078  0.08115068  0.27630245     0.18600
C1622       C  0.59008958  0.06346670  0.26650294    -0.19400
C1623       C  0.63697858  0.11215130  0.28994489    -0.20700
C1624       C  0.67254095  0.13035887  0.29974282    -0.19200
C1625       C  0.69855822  0.11847649  0.29589228     0.20000
C1626       C  0.68884030  0.08740235  0.28189119     0.02100
C1627       C  0.71677297  0.07741383  0.27810619    -0.14000
C1628       C  0.75238184  0.09693086  0.28815576    -0.11700
C1629       C  0.76119469  0.12665119  0.30240195     0.01600
C1630       C  0.73430111  0.13753542  0.30601857    -0.23900
H1631       H  0.59492243  0.99522811  0.23819328     0.09600
H1632       H  0.65648219  0.02396732  0.25496413     0.13200
H1633       H  0.57116460  0.07430793  0.26917184     0.11900
H1634       H  0.61768606  0.12233936  0.29312004     0.13100
H1635       H  0.67984300  0.15410885  0.31034519     0.12100
H1636       H  0.71196798  0.05463384  0.26746463     0.09200
H1637       H  0.77281113  0.08807557  0.28523550     0.12500
H1638       H  0.74126866  0.16095508  0.31683626     0.14400
C1639       C  0.56419220  0.12010367  0.93065976    -0.01100
C1640       C  0.54208305  0.13567453  0.92444163    -0.09200
C1641       C  0.55439733  0.16309987  0.90839645    -0.18000
C1642       C  0.58944644  0.17589788  0.89793143     0.04400
C1643       C  0.61282659  0.16169381  0.90513977     0.18600
C1644       C  0.59995920  0.13387899  0.92123595    -0.19400
C1645       C  0.64874301  0.17509798  0.89610890    -0.20700
C1646       C  0.66204663  0.20248865  0.88007518    -0.19200
C1647       C  0.63926329  0.21623605  0.87226413     0.20000
C1648       C  0.60227934  0.20255043  0.88074106     0.02100
C1649       C  0.57964331  0.21588247  0.87146860    -0.14000
C1650       C  0.59408919  0.24332967  0.85535756    -0.11700
C1651       C  0.63120776  0.25810837  0.84807230     0.01600
C1652       C  0.65342569  0.24402668  0.85618262    -0.23900
H1653       H  0.51461517  0.12606519  0.93169067     0.09600
H1654       H  0.53584949  0.17376339  0.90458989     0.13200
H1655       H  0.61756227  0.12239375  0.92609426     0.11900
H1656       H  0.66681683  0.16456005  0.90161502     0.13100
H1657       H  0.69021328  0.21277060  0.87361844     0.12100
H1658       H  0.55076944  0.20574941  0.87631682     0.09200
H1659       H  0.57657483  0.25384755  0.84894696     0.12500
H1660       H  0.68200180  0.25519351  0.85018163     0.14400
C1661       C  0.74200388  0.36886440  0.84804941    -0.01100
C1662       C  0.76562445  0.40825629  0.84938908    -0.09200
C1663       C  0.79490351  0.42417725  0.86447439    -0.18000
C1664       C  0.80119466  0.40077391  0.87857481     0.04400
C1665       C  0.77779023  0.36065585  0.87632158     0.18600
C1666       C  0.74833567  0.34523860  0.86130466    -0.19400
C1667       C  0.78346245  0.33609589  0.88927479    -0.20700
C1668       C  0.81196009  0.35053490  0.90464312    -0.19200
C1669       C  0.83493380  0.38982092  0.90764171     0.20000
C1670       C  0.82966207  0.41556162  0.89483818     0.02100
C1671       C  0.85281895  0.45489769  0.89908080    -0.14000
C1672       C  0.88061810  0.46809023  0.91499089    -0.11700
C1673       C  0.88644238  0.44262425  0.92704913     0.01600
C1674       C  0.86328281  0.40351839  0.92339869    -0.23900
H1675       H  0.76061526  0.42669465  0.83918372     0.09600
H1676       H  0.81191978  0.45482094  0.86476927     0.13200
H1677       H  0.72989733  0.31471659  0.86008392     0.11900
H1678       H  0.76573506  0.30549788  0.88749480     0.13100
H1679       H  0.81583266  0.33082071  0.91439467     0.12100
H1680       H  0.85012451  0.47625181  0.89043466     0.09200
H1681       H  0.89823154  0.49848415  0.91751919     0.12500
H1682       H  0.86737750  0.38359499  0.93283986     0.14400
C1683       C  0.56109246  0.44081368  0.92752846    -0.01100
C1684       C  0.59058055  0.46624662  0.91408864    -0.09200
C1685       C  0.60544649  0.45308045  0.89860273    -0.18000
C1686       C  0.59147926  0.41378571  0.89620513     0.04400
C1687       C  0.56272275  0.38819585  0.91055163     0.18600
C1688       C  0.54737715  0.40180120  0.92575970    -0.19400
C1689       C  0.54955367  0.34922269  0.90967420    -0.20700
C1690       C  0.56441551  0.33505652  0.89485879    -0.19200
C1691       C  0.59189508  0.35938749  0.88015093     0.20000
C1692       C  0.60531718  0.39901788  0.88027576     0.02100
C1693       C  0.63169610  0.42198915  0.86431155    -0.14000
C1694       C  0.64494270  0.40628428  0.84930322    -0.11700
C1695       C  0.63248797  0.36752496  0.84988102     0.01600
C1696       C  0.60607515  0.34425881  0.86527231    -0.23900
H1697       H  0.60178416  0.49658850  0.91523429     0.09600
H1698       H  0.62811484  0.47442356  0.88892461     0.13200
H1699       H  0.52497136  0.38203547  0.93636612     0.11900
H1700       H  0.52789053  0.32961083  0.92066667     0.13100
H1701       H  0.55401936  0.30479043  0.89473151     0.12100
H1702       H  0.64236886  0.45204119  0.86287631     0.09200
H1703       H  0.66555273  0.42455451  0.83746203     0.12500
H1704       H  0.59646812  0.31420478  0.86560584     0.14400
C1705       C  0.74379923  0.36783719  0.79984262    -0.01100
C1706       C  0.76849350  0.35438688  0.80403796    -0.09200
C1707       C  0.80461497  0.37172705  0.79489743    -0.18000
C1708       C  0.81734930  0.40331776  0.78106996     0.04400
C1709       C  0.79136403  0.41558781  0.77595679     0.18600
C1710       C  0.75491379  0.39772923  0.78531014    -0.19400
C1711       C  0.80224992  0.44611466  0.76189471    -0.20700
C1712       C  0.83847525  0.46499361  0.75294602    -0.19200
C1713       C  0.86494356  0.45413001  0.75800044     0.20000
C1714       C  0.85485370  0.42320101  0.77218839     0.02100
C1715       C  0.88286454  0.41370847  0.77691327    -0.14000
C1716       C  0.91873725  0.43317845  0.76737036    -0.11700
C1717       C  0.92811331  0.46275099  0.75294155     0.01600
C1718       C  0.90134246  0.47368858  0.74870001    -0.23900
H1719       H  0.76005862  0.33079911  0.81494541     0.09600
H1720       H  0.82202719  0.35991784  0.79917771     0.13200
H1721       H  0.73584982  0.40816413  0.78199845     0.11900
H1722       H  0.78261492  0.45554865  0.75782685     0.13100
H1723       H  0.84592146  0.48842485  0.74205443     0.12100
H1724       H  0.87778250  0.39100121  0.78770898     0.09200
H1725       H  0.93866519  0.42382696  0.77059526     0.12500
H1726       H  0.90854014  0.49673295  0.73753185     0.14400
C1727       C  0.62767657  0.36774868  0.80132492    -0.01100
C1728       C  0.59043135  0.35718709  0.80688003    -0.09200
C1729       C  0.57303571  0.37576033  0.79801695    -0.18000
C1730       C  0.59246419  0.40562620  0.78312387     0.04400
C1731       C  0.62934083  0.41444020  0.77646277     0.18600
C1732       C  0.64647239  0.39535154  0.78552295    -0.19400
C1733       C  0.64920640  0.44282690  0.76116221    -0.20700
C1734       C  0.63343976  0.46300104  0.75247922    -0.19200
C1735       C  0.59756218  0.45550781  0.75901738     0.20000
C1736       C  0.57661086  0.42690138  0.77453817     0.02100
C1737       C  0.54079679  0.42104282  0.78084160    -0.14000
C1738       C  0.52536537  0.44076610  0.77098670    -0.11700
C1739       C  0.54494203  0.46687768  0.75468300     0.01600
C1740       C  0.58198111  0.47572993  0.74965248    -0.23900
H1741       H  0.57499809  0.33497592  0.81859689     0.09600
H1742       H  0.54448679  0.36624822  0.80329330     0.13200
H1743       H  0.67508392  0.40316898  0.78097863     0.11900
H1744       H  0.67718780  0.44953469  0.75590440     0.13100
H1745       H  0.64942291  0.48462283  0.74054317     0.12100
H1746       H  0.52370523  0.40094786  0.79306362     0.09200
H1747       H  0.99715555  0.43422659  0.77553891     0.12500
H1748       H  0.59780779  0.49691528  0.73746853     0.14400
C1749       C  0.62987938  0.25691525  0.79985400    -0.01100
C1750       C  0.59716506  0.24632461  0.78782375    -0.09200
C1751       C  0.57739514  0.21044246  0.77817914    -0.18000
C1752       C  0.59005252  0.18417250  0.78039024     0.04400
C1753       C  0.62408533  0.19593085  0.79216149     0.18600
C1754       C  0.64358525  0.23200266  0.80164001    -0.19400
C1755       C  0.63832364  0.17152043  0.79464720    -0.20700
C1756       C  0.61951498  0.13542485  0.78564769    -0.19200
C1757       C  0.58585022  0.12275806  0.77408692     0.20000
C1758       C  0.57043096  0.14681968  0.77134960     0.02100
C1759       C  0.53620905  0.13242333  0.75958501    -0.14000
C1760       C  0.51905986  0.09641658  0.75023422    -0.11700
C1761       C  0.53519440  0.07362111  0.75247922     0.01600
C1762       C  0.56794525  0.08638485  0.76482524    -0.23900
H1763       H  0.58622951  0.26540801  0.78647333     0.09600
H1764       H  0.55215083  0.20398917  0.76932239     0.13200
H1765       H  0.66925910  0.24059573  0.81082552     0.11900
H1766       H  0.66427028  0.18044431  0.80361492     0.13100
H1767       H  0.63142811  0.11728524  0.78772353     0.12100
H1768       H  0.52234289  0.14850334  0.75699979     0.09200
H1769       H  0.49365507  0.08667630  0.74062913     0.12500
H1770       H  0.58048842  0.06866790  0.76630659     0.14400
C1771       C  0.56480376  0.11017557  0.53371837    -0.01100
C1772       C  0.57862227  0.10570765  0.55339750    -0.09200
C1773       C  0.59337044  0.13476146  0.56862628    -0.18000
C1774       C  0.59410796  0.16917500  0.56476974     0.04400
C1775       C  0.57930119  0.17317645  0.54493532     0.18600
C1776       C  0.56563512  0.14418349  0.52951891    -0.19400
C1777       C  0.57742034  0.20575151  0.54075201    -0.20700
C1778       C  0.58925496  0.23423160  0.55601711    -0.19200
C1779       C  0.60455989  0.23144681  0.57550438     0.20000
C1780       C  0.60821728  0.19942957  0.58000273     0.02100
C1781       C  0.62630935  0.19948290  0.59937736    -0.14000
C1782       C  0.63995883  0.23006721  0.61363998    -0.11700
C1783       C  0.63495751  0.26085025  0.60937201     0.01600
C1784       C  0.61684764  0.26100512  0.59036830    -0.23900
H1785       H  0.57807776  0.07953463  0.55707245     0.09600
H1786       H  0.60305747  0.12907628  0.58343977     0.13200
H1787       H  0.55442716  0.14761075  0.51448526     0.11900
H1788       H  0.56604736  0.20891588  0.52571589     0.13100
H1789       H  0.58687237  0.25885900  0.55244076     0.12100
H1790       H  0.63145965  0.17696377  0.60359627     0.09200
H1791       H  0.65520565  0.22997332  0.62779852     0.12500
H1792       H  0.61282805  0.28467404  0.58689923     0.14400
C1793       C  0.74597174  0.37191561  0.60921424    -0.01100
C1794       C  0.77665549  0.36680215  0.61348332    -0.09200
C1795       C  0.80687206  0.37972052  0.59907275    -0.18000
C1796       C  0.80676176  0.39732370  0.57953986     0.04400
C1797       C  0.77545999  0.40228576  0.57533917     0.18600
C1798       C  0.74597185  0.39015330  0.59021828    -0.19400
C1799       C  0.77324123  0.41863121  0.55610590    -0.20700
C1800       C  0.80140238  0.42987944  0.54071372    -0.19200
C1801       C  0.83274830  0.42560968  0.54432180     0.20000
C1802       C  0.83614388  0.40964834  0.56388290     0.02100
C1803       C  0.86890114  0.40693522  0.56692170    -0.14000
C1804       C  0.89720167  0.41998432  0.55135798    -0.11700
C1805       C  0.89362442  0.43554337  0.53213803     0.01600
C1806       C  0.86107110  0.43779104  0.52857992    -0.23900
H1807       H  0.77687592  0.35183163  0.62773698     0.09600
H1808       H  0.82928582  0.37453988  0.60341855     0.13200
H1809       H  0.72243524  0.39422855  0.58669154     0.11900
H1810       H  0.74932996  0.42235688  0.55284606     0.13100
H1811       H  0.79873177  0.44220396  0.52591178     0.12100
H1812       H  0.87385762  0.39550147  0.58127710     0.09200
H1813       H  0.92219361  0.41798788  0.55442685     0.12500
H1814       H  0.85841417  0.45030338  0.51384008     0.14400
C1815       C  0.63644888  0.37045061  0.60733686    -0.01100
C1816       C  0.59893140  0.34775232  0.60048684    -0.09200
C1817       C  0.58557275  0.35876197  0.58299885    -0.18000
C1818       C  0.60972270  0.39297300  0.57186310     0.04400
C1819       C  0.64738739  0.41667510  0.57965281     0.18600
C1820       C  0.66052329  0.40488956  0.59702388    -0.19400
C1821       C  0.67169922  0.45184197  0.57000755    -0.20700
C1822       C  0.65897789  0.46456758  0.55309412    -0.19200
C1823       C  0.62218168  0.44173489  0.54492344     0.20000
C1824       C  0.59756940  0.40495250  0.55363821     0.02100
C1825       C  0.56163994  0.38197729  0.54388919    -0.14000
C1826       C  0.54921544  0.39639261  0.52763247    -0.11700
C1827       C  0.57236372  0.43367165  0.52046760     0.01600
C1828       C  0.60920773  0.45590531  0.52859597    -0.23900
H1829       H  0.58036598  0.32071054  0.60820511     0.09600
H1830       H  0.55623041  0.33992941  0.57860556     0.13200
H1831       H  0.68973567  0.42225650  0.60241336     0.11900
H1832       H  0.70044382  0.46997882  0.57589684     0.13100
H1833       H  0.67800726  0.49245707  0.54637837     0.12100
H1834       H  0.54219923  0.35304727  0.54876587     0.09200
H1835       H  0.52060167  0.37904431  0.52140764     0.12500
H1836       H  0.62696189  0.48494202  0.52300996     0.14400
C1837       C  0.62945489  0.25989493  0.65831992    -0.01100
C1838       C  0.59109455  0.23417916  0.65378939    -0.09200
C1839       C  0.57209143  0.19810990  0.66315181    -0.18000
C1840       C  0.59099415  0.18641220  0.67745175     0.04400
C1841       C  0.62946728  0.21338316  0.68282124     0.18600
C1842       C  0.64815358  0.24982584  0.67338337    -0.19400
C1843       C  0.64937529  0.20340124  0.69708098    -0.20700
C1844       C  0.63225173  0.16697865  0.70577265    -0.19200
C1845       C  0.59475926  0.13954440  0.70044016     0.20000
C1846       C  0.57338843  0.14887908  0.68636464     0.02100
C1847       C  0.53542565  0.12011187  0.68179640    -0.14000
C1848       C  0.51926245  0.08402092  0.69113635    -0.11700
C1849       C  0.54030855  0.07517714  0.70511353     0.01600
C1850       C  0.57830703  0.10290538  0.70936729    -0.23900
H1851       H  0.57609655  0.24165281  0.64231529     0.09600
H1852       H  0.54280048  0.17974089  0.65847576     0.13200
H1853       H  0.67785761  0.26959253  0.67689913     0.11900
H1854       H  0.67859518  0.22380721  0.70135875     0.13100
H1855       H  0.64854233  0.16015089  0.71668805     0.12100
H1856       H  0.51716008  0.12480819  0.67137504     0.09200
H1857       H  0.98968618  0.06357051  0.68813699     0.12500
H1858       H  0.59474689  0.09619188  0.72025849     0.14400
C1859       C  0.93005220  0.46009551  0.70494292    -0.01100
C1860       C  0.92398781  0.48013825  0.68884068    -0.09200
C1861       C  0.88834939  0.46491661  0.67911565    -0.18000
C1862       C  0.85773593  0.42879739  0.68519322     0.04400
C1863       C  0.86518046  0.40737468  0.70028669     0.18600
C1864       C  0.90119543  0.42292133  0.70971497    -0.19400
C1865       C  0.83644354  0.37087986  0.70626797    -0.20700
C1866       C  0.80028283  0.35491773  0.69745131    -0.19200
C1867       C  0.79184519  0.37533048  0.68271766     0.20000
C1868       C  0.82022294  0.41289302  0.67667417     0.02100
C1869       C  0.80970232  0.43280654  0.66240507    -0.14000
C1870       C  0.77343128  0.41507168  0.65334212    -0.11700
C1871       C  0.74667704  0.37712948  0.65817123     0.01600
C1872       C  0.75542562  0.35794971  0.67351213    -0.23900
H1873       H  0.94345255  0.00352919  0.68150053     0.09600
H1874       H  0.88558075  0.48221518  0.66704743     0.13200
H1875       H  0.90636539  0.40669681  0.72158190     0.11900
H1876       H  0.84201460  0.35449395  0.71780452     0.13100
H1877       H  0.77874598  0.32636709  0.70218332     0.12100
H1878       H  0.82897151  0.46187197  0.65772508     0.09200
H1879       H  0.76667179  0.43054096  0.64179401     0.12500
H1880       H  0.73457351  0.32872735  0.67739214     0.14400
C1881       C  0.63522570  0.37567728  0.65625462    -0.01100
C1882       C  0.64472888  0.41256974  0.65036395    -0.09200
C1883       C  0.62681816  0.43026141  0.65968641    -0.18000
C1884       C  0.59901812  0.41185757  0.67573330     0.04400
C1885       C  0.59137536  0.37549302  0.68283245     0.18600
C1886       C  0.60935477  0.35771997  0.67302033    -0.19400
C1887       C  0.56561366  0.35705259  0.69954419    -0.20700
C1888       C  0.54695670  0.37367350  0.70915962    -0.19200
C1889       C  0.55306741  0.40890093  0.70209418     0.20000
C1890       C  0.57901347  0.42846967  0.68519731     0.02100
C1891       C  0.58354831  0.46367948  0.67845467    -0.14000
C1892       C  0.56492364  0.47979500  0.68893576    -0.11700
C1893       C  0.54089961  0.46128636  0.70626182     0.01600
C1894       C  0.53377600  0.42497798  0.71206819    -0.23900
H1895       H  0.66627275  0.42800857  0.63839136     0.09600
H1896       H  0.63562579  0.45851401  0.65410571     0.13200
H1897       H  0.60244155  0.32948677  0.67801801     0.11900
H1898       H  0.55989638  0.32958370  0.70525544     0.13100
H1899       H  0.02745643  0.35876833  0.72218499     0.12100
H1900       H  0.60160921  0.47967422  0.66525989     0.09200
H1901       H  0.56957399  0.00820776  0.68393163     0.12500
H1902       H  0.01406889  0.40973165  0.72496035     0.14400
C1903       C  0.66527995  0.83099587  0.61288741     0.45600
H1904       H  0.66444880  0.82932496  0.59512178    -0.03400
C1905       C  0.66691854  0.83468036  0.65450088     0.45700
H1906       H  0.66754205  0.83629530  0.67225524    -0.03400
C1907       C  0.70543032  0.85106982  0.62209502    -0.17100
C1908       C  0.64726412  0.85252849  0.62185632    -0.16900
C1909       C  0.64450453  0.79210546  0.62362692    -0.17200
C1910       C  0.70673508  0.85339359  0.64409021    -0.17200
C1911       C  0.64786778  0.85486982  0.64375618    -0.16800
C1912       C  0.64515827  0.79370099  0.64556809    -0.17100
C1913       C  0.66833498  0.83577059  0.80355399     0.45600
H1914       H  0.66857759  0.83667060  0.78578176    -0.03400
C1915       C  0.66757648  0.83281581  0.84525415     0.45700
H1916       H  0.66717728  0.83155922  0.86304102    -0.03400
C1917       C  0.64999391  0.79503190  0.81276390    -0.17100
C1918       C  0.70831633  0.85710817  0.81388067    -0.16900
C1919       C  0.64619965  0.85278176  0.81412774    -0.17200
C1920       C  0.64994015  0.79396985  0.83466860    -0.17200
C1921       C  0.70744603  0.85568272  0.83585321    -0.16800
C1922       C  0.64608428  0.85101055  0.83611072    -0.17100
C1923       C  0.50383419  0.50007742  0.75080065     0.45600
H1924       H  0.50327979  0.50022816  0.76857465    -0.03400
C1925       C  0.50521250  0.50045529  0.70894620     0.45700
H1926       H  0.50185637  0.99891686  0.68987056    -0.03400
C1927       C  0.96122267  0.97839966  0.73940858    -0.17100
C1928       C  0.52325637  0.54005908  0.74098324    -0.16900
C1929       C  0.52200126  0.97994146  0.73982543    -0.17200
C1930       C  0.96132181  0.97773640  0.71736325    -0.17200
C1931       C  0.52427424  0.54036972  0.71906049    -0.16800
C1932       C  0.52153755  0.97932524  0.71776570    -0.17100
C1933       C  0.84176573  0.66238405  0.30350267     0.45600
H1934       H  0.84108606  0.66118486  0.28573773    -0.03400
C1935       C  0.84340697  0.66543016  0.34514683     0.45700
H1936       H  0.84416309  0.66692187  0.36293622    -0.03400
C1937       C  0.86602489  0.70308698  0.31260175    -0.17100
C1938       C  0.80211164  0.64645822  0.31391631    -0.16900
C1939       C  0.85838975  0.63975427  0.31405612    -0.17200
C1940       C  0.86653118  0.70407763  0.33451984    -0.17200
C1941       C  0.80370702  0.64872120  0.33584676    -0.16800
C1942       C  0.85859284  0.64124236  0.33603051    -0.17100
C1943       C  0.83998052  0.66437798  0.11222896     0.45600
H1944       H  0.84027248  0.66506159  0.09444041    -0.03400
C1945       C  0.83960907  0.66313085  0.15379569     0.45700
H1946       H  0.83935035  0.66263467  0.17157115    -0.03400
C1947       C  0.80042029  0.63936434  0.12151073    -0.17100
C1948       C  0.86406044  0.64931869  0.12171111    -0.16900
C1949       C  0.85486189  0.70338951  0.12220161    -0.17200
C1950       C  0.79969117  0.63869456  0.14352551    -0.17200
C1951       C  0.86391152  0.64798734  0.14370090    -0.16800
C1952       C  0.85535893  0.70341839  0.14417262    -0.17100
C1953       C  0.50340686  0.99703603  0.25019439     0.45600
H1954       H  0.50408372  0.99647130  0.26796451    -0.03400
C1955       C  0.50192728  0.99849107  0.20833046     0.45700
H1956       H  0.50136716  0.99911403  0.19056069    -0.03400
C1957       C  0.54735818  0.51829778  0.24002511    -0.17100
C1958       C  0.98272544  0.95729369  0.23978208    -0.16900
C1959       C  0.98806910  0.51869066  0.24085520    -0.17200
C1960       C  0.54687835  0.51943139  0.21801153    -0.17200
C1961       C  0.98250981  0.95805951  0.21774605    -0.16800
C1962       C  0.98687385  0.51887064  0.21882176    -0.17100
O1963       O  0.51262280  0.56950168  0.94958984    -0.78300
C1964       C  0.91799534  0.96243972  0.94419200     0.82700
O1965       O  0.97212408  0.52037632  0.02141434    -0.79500
O1966       O  0.95232510  0.90828765  0.99425497    -0.80900
O1967       O  0.56314480  0.99025670  0.94984277    -0.80700
O1968       O  0.56808742  0.57180671  0.94963366    -0.79400
Zn1969     Zn  0.97734299  0.52520345  0.96805439     1.55700
O1970       O  0.50783148  0.93520287  0.95004528    -0.80800
Cd1971     Cd  0.55609722  0.52518642  0.96826937     1.59700
Cd1972     Cd  0.50212135  0.49764033  0.00939330     1.59600
O1973       O  0.59412522  0.54176267  0.99372524    -0.80800
O1974       O  0.50209597  0.49823471  0.97792729    -1.91300
Cd1975     Cd  0.97346367  0.94700297  0.96908533     1.59900
O1976       O  0.55573949  0.52699484  0.02184561    -0.80700
O1977       O  0.92891756  0.93978546  0.95027327    -0.79400
C1978       C  0.95791502  0.53846313  0.01284417     0.83200
C1979       C  0.54695306  0.58444165  0.94336799     0.82800
O1980       O  0.93412181  0.99679048  0.95065341    -0.78300
C1981       C  0.54212036  0.95592662  0.94371962     0.83600
O1982       O  0.95886024  0.54380074  0.99269272    -0.78400
C1983       C  0.58878574  0.54119760  0.01385256     0.83800
C1984       C  0.95949795  0.91331267  0.01424922     0.84100
O1985       O  0.97973724  0.94621663  0.02235231    -0.80800
O1986       O  0.99364706  0.92938456  0.44762953    -0.78300
C1987       C  0.59368848  0.54527380  0.44388457     0.82700
O1988       O  0.53099441  0.96239827  0.51963175    -0.79500
O1989       O  0.55065758  0.58681690  0.49732481    -0.80900
O1990       O  0.94382990  0.50785444  0.45264814    -0.80700
O1991       O  0.93679300  0.92372355  0.45059855    -0.79400
Zn1992     Zn  0.52934921  0.97199582  0.46674525     1.55700
O1993       O  0.00010759  0.56172264  0.45086154    -0.80800
Cd1994     Cd  0.94911329  0.96925273  0.47043024     1.59700
Cd1995     Cd  0.50600882  0.99241854  0.51090969     1.59600
O1996       O  0.91279175  0.95106959  0.49657293    -0.80800
O1997       O  0.50372616  0.99588451  0.47948126    -1.91300
Cd1998     Cd  0.53499857  0.55188942  0.47051602     1.59900
O1999       O  0.95289423  0.96507519  0.52394687    -0.80700
O2000       O  0.58276262  0.56628416  0.45249135    -0.79400
C2001       C  0.54712604  0.94825622  0.50896956     0.83200
C2002       C  0.95855267  0.91306859  0.44270828     0.82800
O2003       O  0.57694001  0.50966441  0.44753563    -0.78300
C2004       C  0.96510211  0.54162768  0.44570313     0.83600
O2005       O  0.54957275  0.95031930  0.48867050    -0.78400
C2006       C  0.91941484  0.95116230  0.51653516     0.83800
C2007       C  0.55236338  0.57991191  0.51709376     0.84100
O2008       O  0.54056669  0.54647129  0.52403352    -0.80800
C2009       C  0.62131569  0.55675564  0.02868937    -0.01100
C2010       C  0.65376140  0.55504735  0.02390841    -0.09200
C2011       C  0.68298202  0.56671668  0.03895349    -0.18000
C2012       C  0.68069659  0.58103911  0.05917741     0.04400
C2013       C  0.64839163  0.58428882  0.06343201     0.18600
C2014       C  0.61894612  0.57161864  0.04840542    -0.19400
C2015       C  0.64563591  0.60026369  0.08263221    -0.20700
C2016       C  0.67467124  0.61369049  0.09769089    -0.19200
C2017       C  0.70651416  0.61026361  0.09421374     0.20000
C2018       C  0.70952233  0.59291370  0.07517869     0.02100
C2019       C  0.74119827  0.58815598  0.07305289    -0.14000
C2020       C  0.76946416  0.60167230  0.08871539    -0.11700
C2021       C  0.76728265  0.62048031  0.10686757     0.01600
C2022       C  0.73564843  0.62455387  0.10957676    -0.23900
H2023       H  0.65609095  0.54367198  0.00871516     0.09600
H2024       H  0.70708715  0.56455220  0.03421746     0.13200
H2025       H  0.59405672  0.57351032  0.05203271     0.11900
H2026       H  0.62109693  0.60292696  0.08588566     0.13100
H2027       H  0.67206459  0.62657669  0.11224136     0.12100
H2028       H  0.74485676  0.57399432  0.05955377     0.09200
H2029       H  0.79363436  0.59799290  0.08644555     0.12500
H2030       H  0.73415167  0.63976357  0.12337252     0.14400
C2031       C  0.94382528  0.88068847  0.02892233    -0.01100
C2032       C  0.90781420  0.84877856  0.02549159    -0.09200
C2033       C  0.89143237  0.82003129  0.04088295    -0.18000
C2034       C  0.91105264  0.82232156  0.06006430     0.04400
C2035       C  0.94842857  0.85395366  0.06281188     0.18600
C2036       C  0.96412371  0.88287227  0.04746013    -0.19400
C2037       C  0.96995976  0.85663947  0.08086891    -0.20700
C2038       C  0.95532526  0.82816463  0.09625937    -0.19200
C2039       C  0.91841031  0.79695341  0.09424028     0.20000
C2040       C  0.89533055  0.79409313  0.07641630     0.02100
C2041       C  0.85756796  0.76304681  0.07573632    -0.14000
C2042       C  0.84420280  0.73484974  0.09136104    -0.11700
C2043       C  0.86780893  0.73676413  0.10812833     0.01600
C2044       C  0.90466565  0.76812709  0.10974203    -0.23900
H2045       H  0.89177987  0.84665646  0.01121402     0.09600
H2046       H  0.86353566  0.79632408  0.03724143     0.13200
H2047       H  0.99234708  0.90737485  0.04997518     0.11900
H2048       H  0.99856142  0.88069408  0.08295566     0.13100
H2049       H  0.97291759  0.83063181  0.10985934     0.12100
H2050       H  0.83774735  0.75965507  0.06332304     0.09200
H2051       H  0.81542187  0.71081728  0.09008041     0.12500
H2052       H  0.92306115  0.76939796  0.12262583     0.14400
C2053       C  0.88208354  0.63493974  0.10712407    -0.01100
C2054       C  0.90340654  0.65763763  0.08992083    -0.09200
C2055       C  0.91565066  0.64291221  0.07386484    -0.18000
C2056       C  0.90673162  0.60469879  0.07457358     0.04400
C2057       C  0.88651935  0.58233354  0.09266575     0.18600
C2058       C  0.87394788  0.59742652  0.10856995    -0.19400
C2059       C  0.87849227  0.54488461  0.09461992    -0.20700
C2060       C  0.89044133  0.52917823  0.07903049    -0.19200
C2061       C  0.90971725  0.55022372  0.06087031     0.20000
C2062       C  0.91733750  0.58796640  0.05807774     0.02100
C2063       C  0.93498555  0.60713515  0.03882321    -0.14000
C2064       C  0.94635276  0.59018741  0.02352405    -0.11700
C2065       C  0.94083461  0.55401289  0.02709971     0.01600
C2066       C  0.92190775  0.53388825  0.04556497    -0.23900
H2067       H  0.90986369  0.68678541  0.08866137     0.09600
H2068       H  0.93199841  0.66215703  0.06113784     0.13200
H2069       H  0.85678734  0.57963696  0.12170622     0.11900
H2070       H  0.86322870  0.52778406  0.10839002     0.13100
H2071       H  0.88513361  0.00178199  0.08377601     0.12100
H2072       H  0.94046901  0.63526048  0.03510989     0.09200
H2073       H  0.96090944  0.60602279  0.00927588     0.12500
H2074       H  0.91713339  0.50552296  0.04814664     0.14400
C2075       C  0.87104633  0.73875878  0.15719127    -0.01100
C2076       C  0.90025684  0.74757967  0.17184426    -0.09200
C2077       C  0.91979021  0.78338273  0.18160644    -0.18000
C2078       C  0.91051615  0.81161973  0.17701095     0.04400
C2079       C  0.87916656  0.80157361  0.16314504     0.18600
C2080       C  0.85984069  0.76545917  0.15341308    -0.19400
C2081       C  0.86771719  0.82785004  0.15881961    -0.20700
C2082       C  0.88666982  0.86395584  0.16801148    -0.19200
C2083       C  0.91816846  0.87509902  0.18137391     0.20000
C2084       C  0.93097599  0.84928811  0.18575134     0.02100
C2085       C  0.96391126  0.86246688  0.19854674    -0.14000
C2086       C  0.98190480  0.89875557  0.20761878    -0.11700
C2087       C  0.96768497  0.92308791  0.20443855     0.01600
C2088       C  0.93655585  0.91164767  0.19073343    -0.23900
H2089       H  0.90913821  0.72723774  0.17505452     0.09600
H2090       H  0.94222317  0.78819379  0.19256794     0.13200
H2091       H  0.83667561  0.75842489  0.14234466     0.11900
H2092       H  0.84375378  0.82034226  0.14831077     0.13100
H2093       H  0.87675086  0.88340403  0.16453677     0.12100
H2094       H  0.97633837  0.84529912  0.20197827     0.09200
H2095       H  0.50629261  0.90740401  0.21794613     0.12500
H2096       H  0.92559219  0.93052274  0.18818072     0.14400
C2097       C  0.88261042  0.63102141  0.15636162    -0.01100
C2098       C  0.86193504  0.60348530  0.17192179    -0.09200
C2099       C  0.87731809  0.58385409  0.18213772    -0.18000
C2100       C  0.91424638  0.59123438  0.17710792     0.04400
C2101       C  0.93557248  0.62010056  0.16176110     0.18600
C2102       C  0.91981185  0.63979838  0.15174122    -0.19400
C2103       C  0.97235269  0.62883228  0.15629553    -0.20700
C2104       C  0.98860680  0.60967742  0.16580984    -0.19200
C2105       C  0.96849287  0.58110319  0.18099199     0.20000
C2106       C  0.93086361  0.57122970  0.18675251     0.02100
C2107       C  0.91160971  0.54178482  0.20192976    -0.14000
C2108       C  0.92937438  0.52396768  0.21146356    -0.11700
C2109       C  0.96695049  0.53485065  0.20640912     0.01600
C2110       C  0.98603724  0.56278147  0.19073521    -0.23900
H2111       H  0.83313331  0.59612089  0.17567855     0.09600
H2112       H  0.85939655  0.56276083  0.19373681     0.13200
H2113       H  0.93625456  0.66151768  0.13993245     0.11900
H2114       H  0.98873218  0.65071732  0.14456761     0.13100
H2115       H  0.51722446  0.61736973  0.16128626     0.12100
H2116       H  0.88288424  0.53206107  0.20693035     0.09200
H2117       H  0.90873503  0.99981780  0.22355823     0.12500
H2118       H  0.51509541  0.57126272  0.18672515     0.14400
C2119       C  0.58198578  0.53725254  0.20482808    -0.01100
C2120       C  0.58803922  0.51556906  0.18985604    -0.09200
C2121       C  0.62333942  0.53034104  0.17977370    -0.14800
C2122       C  0.65375847  0.56752612  0.18442676     0.04400
C2123       C  0.64668047  0.58989893  0.19897781     0.18600
C2124       C  0.61103356  0.57474420  0.20885063    -0.19400
C2125       C  0.67541140  0.62704999  0.20392351    -0.20700
C2126       C  0.71119131  0.64267982  0.19469407    -0.19200
C2127       C  0.71928327  0.62144851  0.18043063     0.20000
C2128       C  0.69083784  0.58340971  0.17520705     0.02100
C2129       C  0.70087559  0.56307001  0.16100446    -0.14000
C2130       C  0.73694168  0.58037291  0.15168845    -0.11700
C2131       C  0.76407097  0.61839177  0.15613321     0.01600
C2132       C  0.75549625  0.63839863  0.17099243    -0.23900
H2133       H  0.56584791  0.48651125  0.18660541     0.09600
H2134       H  0.62608234  0.51177780  0.16864272     0.13200
H2135       H  0.60616736  0.59171539  0.22029886     0.11900
H2136       H  0.67015947  0.64418340  0.21502451     0.13100
H2137       H  0.73271741  0.67163837  0.19874563     0.12100
H2138       H  0.68135506  0.53391751  0.15656503     0.09200
H2139       H  0.74333206  0.56435101  0.14039567     0.12500
H2140       H  0.77649083  0.66786950  0.17442128     0.14400
C2141       C  0.77105487  0.63513765  0.35031929    -0.01100
C2142       C  0.76915915  0.66073920  0.36427251    -0.09200
C2143       C  0.74074422  0.64788770  0.37973214    -0.18000
C2144       C  0.71382398  0.60863465  0.38192287     0.04400
C2145       C  0.71647508  0.58284399  0.36775227     0.18600
C2146       C  0.74466065  0.59634686  0.35196360    -0.19400
C2147       C  0.69156174  0.54366094  0.36972341    -0.20700
C2148       C  0.66398250  0.52933484  0.38555177    -0.19200
C2149       C  0.66023026  0.55390532  0.39951724     0.20000
C2150       C  0.68478281  0.59394509  0.39782640     0.02100
C2151       C  0.67890150  0.61741049  0.41200908    -0.14000
C2152       C  0.64969694  0.60164656  0.42710340    -0.11700
C2153       C  0.62581648  0.56214858  0.42872898     0.01600
C2154       C  0.63155656  0.53851324  0.41500036    -0.23900
H2155       H  0.79009401  0.69082117  0.36334939     0.09600
H2156       H  0.74123252  0.66923280  0.39001394     0.13200
H2157       H  0.74705214  0.57660059  0.34143356     0.11900
H2158       H  0.69364918  0.52391757  0.35906655     0.13100
H2159       H  0.64521544  0.49878027  0.38676606     0.12100
H2160       H  0.69588395  0.64799590  0.41161581     0.09200
H2161       H  0.64572620  0.62051512  0.43749005     0.12500
H2162       H  0.61293897  0.50788873  0.41594868     0.14400
C2163       C  0.88271792  0.73872684  0.34758565    -0.01100
C2164       C  0.86329624  0.75837056  0.34939662    -0.09200
C2165       C  0.87469485  0.78735716  0.36445335    -0.18000
C2166       C  0.90621623  0.79752925  0.37803108     0.04400
C2167       C  0.92710533  0.77878011  0.37504544     0.18600
C2168       C  0.91474773  0.74912894  0.36018158    -0.19400
C2169       C  0.95978484  0.78926888  0.38715924    -0.20700
C2170       C  0.97209306  0.81787759  0.40239166    -0.19200
C2171       C  0.95133460  0.83578865  0.40632029     0.20000
C2172       C  0.91774306  0.82550307  0.39446264     0.02100
C2173       C  0.89680954  0.84311855  0.39989742    -0.14000
C2174       C  0.90943434  0.87064890  0.41598171    -0.11700
C2175       C  0.94338537  0.88171968  0.42698429     0.01600
C2176       C  0.96398554  0.86390741  0.42215417    -0.23900
H2177       H  0.83832915  0.75024552  0.33964608     0.09600
H2178       H  0.85826639  0.80113293  0.36512725     0.13200
H2179       H  0.92959109  0.73361549  0.35861293     0.11900
H2180       H  0.97598059  0.77532916  0.38479364     0.13100
H2181       H  0.49770672  0.82560637  0.41142776     0.12100
H2182       H  0.87039599  0.83598499  0.39217029     0.09200
H2183       H  0.89294591  0.88389916  0.41948720     0.12500
H2184       H  0.49005268  0.87190852  0.43079951     0.14400
C2185       C  0.94891879  0.55719574  0.43050658    -0.01100
C2186       C  0.91044559  0.54597403  0.43158451    -0.09200
C2187       C  0.89424864  0.55826201  0.41625678    -0.18000
C2188       C  0.91602098  0.58165879  0.39898867     0.04400
C2189       C  0.95516489  0.59306866  0.39806226     0.18600
C2190       C  0.97125852  0.58119335  0.41388925    -0.19400
C2191       C  0.97792080  0.61586938  0.38121371    -0.20700
C2192       C  0.96278362  0.62804188  0.36530987    -0.19200
C2193       C  0.92454238  0.61779177  0.36589645     0.20000
C2194       C  0.90046625  0.59418699  0.38265305     0.02100
C2195       C  0.86199166  0.58455583  0.38243041    -0.14000
C2196       C  0.84850250  0.59893472  0.36675135    -0.11700
C2197       C  0.87257347  0.62276235  0.35067409     0.01600
C2198       C  0.91040137  0.63175016  0.35008384    -0.23900
H2199       H  0.88649112  0.02169782  0.44263891     0.09600
H2200       H  0.86449132  0.54853136  0.41828123     0.13200
H2201       H  0.00102472  0.58956953  0.41284967     0.11900
H2202       H  0.50772577  0.62444114  0.38035550     0.13100
H2203       H  0.98120883  0.64588062  0.35254822     0.12100
H2204       H  0.84170223  0.56654183  0.39433989     0.09200
H2205       H  0.81913803  0.59190153  0.36735215     0.12500
H2206       H  0.92912884  0.65072628  0.33773559     0.14400
C2207       C  0.96515849  0.92136829  0.25234209    -0.01100
C2208       C  0.98649888  0.91533727  0.26761597    -0.09200
C2209       C  0.97208109  0.87962869  0.27719793    -0.18000
C2210       C  0.93567256  0.84870524  0.27162671     0.04400
C2211       C  0.91347990  0.85567725  0.25685085     0.18600
C2212       C  0.92815400  0.89181209  0.24761827    -0.19400
C2213       C  0.87694530  0.82645147  0.25115580    -0.20700
C2214       C  0.86154324  0.79042216  0.26014652    -0.19200
C2215       C  0.88253510  0.78252703  0.27477551     0.20000
C2216       C  0.92026275  0.81132194  0.28035737     0.02100
C2217       C  0.94084176  0.80138720  0.29446381    -0.14000
C2218       C  0.92376379  0.76535227  0.30376564    -0.11700
C2219       C  0.88574963  0.73811296  0.29942656     0.01600
C2220       C  0.86568867  0.74627766  0.28430742    -0.23900
H2221       H  0.01505061  0.93795279  0.27156709     0.09600
H2222       H  0.99020960  0.87706244  0.28874319     0.13200
H2223       H  0.91117140  0.89671955  0.23616577     0.11900
H2224       H  0.86002249  0.83159214  0.23978766     0.13100
H2225       H  0.83293151  0.76859684  0.25567515     0.12100
H2226       H  0.97000763  0.82092220  0.29881907     0.09200
H2227       H  0.94002193  0.75906735  0.31499123     0.12500
H2228       H  0.83632784  0.72506748  0.28080253     0.14400
C2229       C  0.87524567  0.62101887  0.30171810    -0.01100
C2230       C  0.90287130  0.64175725  0.28627684    -0.09200
C2231       C  0.92321054  0.62676813  0.27670944    -0.18000
C2232       C  0.91635260  0.59022998  0.28234217     0.04400
C2233       C  0.88671429  0.56847175  0.29717076     0.18600
C2234       C  0.86647513  0.58393645  0.30663563    -0.19400
C2235       C  0.87773849  0.53158552  0.30264730    -0.20700
C2236       C  0.89728495  0.51555666  0.29349976    -0.19200
C2237       C  0.92681737  0.53628566  0.27897410     0.20000
C2238       C  0.93739349  0.57428719  0.27357772     0.02100
C2239       C  0.96857723  0.59463759  0.25962747    -0.14000
C2240       C  0.98650423  0.57706490  0.25022149    -0.11700
C2241       C  0.97396440  0.53876612  0.25428725     0.01600
C2242       C  0.94519745  0.51891612  0.26933684    -0.23900
H2243       H  0.90984409  0.67037151  0.28219110     0.09600
H2244       H  0.94419508  0.64453419  0.26505712     0.13200
H2245       H  0.84443365  0.56745816  0.31824653     0.11900
H2246       H  0.85518962  0.51486779  0.31394532     0.13100
H2247       H  0.88920035  0.48671174  0.29779811     0.12100
H2248       H  0.97950583  0.62398868  0.25546780     0.09200
H2249       H  0.00939135  0.59304928  0.23897475     0.12500
H2250       H  0.92904536  0.98694751  0.27190291     0.14400
C2251       C  0.58291202  0.53327788  0.25277129    -0.01100
C2252       C  0.60820511  0.52064883  0.24851510    -0.09200
C2253       C  0.64411536  0.53811701  0.25805392    -0.18000
C2254       C  0.65593502  0.56896148  0.27234933     0.04400
C2255       C  0.62932282  0.58038961  0.27744140     0.18600
C2256       C  0.59312568  0.56239998  0.26771537    -0.19400
C2257       C  0.63930352  0.61022153  0.29186466    -0.20700
C2258       C  0.67522989  0.62918953  0.30124177    -0.19200
C2259       C  0.70225756  0.61908070  0.29629267     0.20000
C2260       C  0.69313862  0.58892793  0.28170571     0.02100
C2261       C  0.72183225  0.58039568  0.27700713    -0.14000
C2262       C  0.75755251  0.60021506  0.28684512    -0.11700
C2263       C  0.76584089  0.62895639  0.30168095     0.01600
C2264       C  0.73833341  0.63879341  0.30599732    -0.23900
H2265       H  0.60045820  0.49773097  0.23721500     0.09600
H2266       H  0.66207634  0.52705127  0.25371979     0.13200
H2267       H  0.57347649  0.57210386  0.27106342     0.11900
H2268       H  0.61920652  0.61903221  0.29587557     0.13100
H2269       H  0.68199964  0.65210832  0.31239103     0.12100
H2270       H  0.71751452  0.55839456  0.26589963     0.09200
H2271       H  0.77843751  0.59217965  0.28335877     0.12500
H2272       H  0.74491408  0.66159086  0.31721096     0.14400
C2273       C  0.56189270  0.61608712  0.92775009    -0.01100
C2274       C  0.53788496  0.62793765  0.91929748    -0.09200
C2275       C  0.55049938  0.65550856  0.90330242    -0.18000
C2276       C  0.58785869  0.67236138  0.89515098     0.04400
C2277       C  0.61250980  0.66105405  0.90416703     0.18600
C2278       C  0.59934356  0.63307151  0.92020290    -0.19400
C2279       C  0.65013451  0.67770361  0.89710854    -0.20700
C2280       C  0.66402271  0.70575135  0.88142905    -0.19200
C2281       C  0.64043126  0.71738431  0.87219901     0.20000
C2282       C  0.60178820  0.70040028  0.87862862     0.02100
C2283       C  0.57888791  0.71245751  0.86831281    -0.14000
C2284       C  0.59433985  0.74161308  0.85318585    -0.11700
C2285       C  0.63267679  0.75918305  0.84775907     0.01600
C2286       C  0.65544708  0.74652908  0.85686508    -0.23900
H2287       H  0.50883642  0.61541646  0.92481981     0.09600
H2288       H  0.53027937  0.66302940  0.89772700     0.13200
H2289       H  0.61827076  0.62424633  0.92665130     0.11900
H2290       H  0.66909672  0.66924534  0.90392781     0.13100
H2291       H  0.69345463  0.71853925  0.87654072     0.12100
H2292       H  0.54912465  0.70034977  0.87174737     0.09200
H2293       H  0.57655249  0.75129328  0.84612806     0.12500
H2294       H  0.68507006  0.75991335  0.85227244     0.14400
C2295       C  0.74109086  0.87273794  0.85002517    -0.01100
C2296       C  0.76861344  0.91142006  0.84884577    -0.09200
C2297       C  0.79837423  0.92766682  0.86369900    -0.18000
C2298       C  0.80129519  0.90533826  0.88009964     0.04400
C2299       C  0.77423802  0.86567415  0.88029717     0.18600
C2300       C  0.74429169  0.85007242  0.86559392    -0.19400
C2301       C  0.77690033  0.84176299  0.89529917    -0.20700
C2302       C  0.80586952  0.85645550  0.91036920    -0.19200
C2303       C  0.83209276  0.89553338  0.91117998     0.20000
C2304       C  0.82990668  0.92072158  0.89631208     0.02100
C2305       C  0.85592748  0.96016639  0.89866029    -0.14000
C2306       C  0.88361796  0.97378838  0.91471718    -0.11700
C2307       C  0.88653776  0.94855223  0.92865728     0.01600
C2308       C  0.86049172  0.90953776  0.92689011    -0.23900
H2309       H  0.76650712  0.92925507  0.83675087     0.09600
H2310       H  0.81862486  0.95764347  0.86193949     0.13200
H2311       H  0.72313827  0.82005662  0.86634908     0.11900
H2312       H  0.75648422  0.81142861  0.89532417     0.13100
H2313       H  0.80740196  0.83718960  0.92170326     0.12100
H2314       H  0.85536766  0.98117443  0.88847281     0.09200
H2315       H  0.90347753  0.00412136  0.91584994     0.12500
H2316       H  0.86228157  0.88991560  0.93785827     0.14400
C2317       C  0.55800196  0.94066615  0.92816758    -0.01100
C2318       C  0.58683741  0.96574961  0.91430023    -0.09200
C2319       C  0.60133912  0.95229335  0.89877358    -0.18000
C2320       C  0.58773457  0.91300577  0.89675673     0.04400
C2321       C  0.55971221  0.88772304  0.91152325     0.18600
C2322       C  0.54453986  0.90160595  0.92675159    -0.19400
C2323       C  0.54727763  0.84885462  0.91107961    -0.20700
C2324       C  0.56223859  0.83459064  0.89632647    -0.19200
C2325       C  0.58896501  0.85862478  0.88119060     0.20000
C2326       C  0.60143814  0.89805231  0.88084597     0.02100
C2327       C  0.62684993  0.92074081  0.86446622    -0.14000
C2328       C  0.64039153  0.90514776  0.84960619    -0.11700
C2329       C  0.62908869  0.86669212  0.85060805     0.01600
C2330       C  0.60338774  0.84351944  0.86635941    -0.23900
H2331       H  0.59786005  0.99609431  0.91517096     0.09600
H2332       H  0.62358087  0.97345708  0.88882685     0.13200
H2333       H  0.52269590  0.88212295  0.93769827     0.11900
H2334       H  0.52622773  0.82945606  0.92239371     0.13100
H2335       H  0.55249803  0.80445808  0.89659068     0.12100
H2336       H  0.63655783  0.95051432  0.86258396     0.09200
H2337       H  0.66041279  0.92337488  0.83751211     0.12500
H2338       H  0.59456755  0.81362039  0.86699858     0.14400
C2339       C  0.74414469  0.87237475  0.80157429    -0.01100
C2340       C  0.76935642  0.85986750  0.80644114    -0.09200
C2341       C  0.80519560  0.87677753  0.79706240    -0.18000
C2342       C  0.81698207  0.90683924  0.78221709     0.04400
C2343       C  0.79046111  0.91807382  0.77644707     0.18600
C2344       C  0.75432350  0.90070808  0.78610581    -0.19400
C2345       C  0.80043515  0.94698220  0.76135161    -0.20700
C2346       C  0.83632040  0.96525172  0.75199686    -0.19200
C2347       C  0.86323542  0.95529583  0.75762922     0.20000
C2348       C  0.85403309  0.92602387  0.77287163     0.02100
C2349       C  0.88239306  0.91729340  0.77811234    -0.14000
C2350       C  0.91765671  0.93565302  0.76793514    -0.11700
C2351       C  0.92601960  0.96332810  0.75239045     0.01600
C2352       C  0.89914344  0.97395436  0.74780248    -0.23900
H2353       H  0.76151347  0.83725290  0.81798842     0.09600
H2354       H  0.82296116  0.86577187  0.80188553     0.13200
H2355       H  0.73473901  0.91019601  0.78218693     0.11900
H2356       H  0.78036640  0.95556897  0.75677666     0.13100
H2357       H  0.84309593  0.98739476  0.74028357     0.12100
H2358       H  0.87810555  0.89605069  0.78973526     0.09200
H2359       H  0.93778045  0.92687282  0.77161924     0.12500
H2360       H  0.90574532  0.99578430  0.73589850     0.14400
C2361       C  0.62607560  0.86848803  0.80191355    -0.01100
C2362       C  0.58851336  0.85739263  0.80705588    -0.09200
C2363       C  0.57084472  0.87546992  0.79783063    -0.18000
C2364       C  0.59025834  0.90532603  0.78291422     0.04400
C2365       C  0.62756501  0.91483849  0.77674092     0.18600
C2366       C  0.64502363  0.89635109  0.78622541    -0.19400
C2367       C  0.64742832  0.94317472  0.76140302    -0.20700
C2368       C  0.63113094  0.96242323  0.75210527    -0.19200
C2369       C  0.59477202  0.95421660  0.75812606     0.20000
C2370       C  0.57393472  0.92584409  0.77378629     0.02100
C2371       C  0.53777018  0.91947623  0.77969455    -0.14000
C2372       C  0.52205128  0.93867644  0.76948125    -0.11700
C2373       C  0.54161643  0.96475809  0.75313434     0.01600
C2374       C  0.57875392  0.97368904  0.74823914    -0.23900
H2375       H  0.57294424  0.83503898  0.81868097     0.09600
H2376       H  0.54204583  0.86548561  0.80276120     0.13200
H2377       H  0.67390653  0.90470054  0.78200658     0.11900
H2378       H  0.67576832  0.95046221  0.75653014     0.13100
H2379       H  0.64712477  0.98394942  0.74012435     0.12100
H2380       H  0.52070033  0.89951733  0.79196917     0.09200
H2381       H  0.99380959  0.93186871  0.77386152     0.12500
H2382       H  0.59458919  0.99476405  0.73601090     0.14400
C2383       C  0.63353392  0.76013351  0.79961135    -0.01100
C2384       C  0.60178069  0.74983305  0.78674676    -0.09200
C2385       C  0.58227898  0.71389628  0.77713668    -0.18000
C2386       C  0.59419488  0.68720623  0.78022831     0.04400
C2387       C  0.62775624  0.69889709  0.79245037     0.18600
C2388       C  0.64703085  0.73506597  0.80190513    -0.19400
C2389       C  0.64152218  0.67419346  0.79553821    -0.20700
C2390       C  0.62260386  0.63785956  0.78678345    -0.19200
C2391       C  0.58914894  0.62511931  0.77497993     0.20000
C2392       C  0.57418812  0.64944994  0.77168426     0.02100
C2393       C  0.53980209  0.63478687  0.76005597    -0.14000
C2394       C  0.52214664  0.59830072  0.75126473    -0.11700
C2395       C  0.53803926  0.57531009  0.75377700     0.01600
C2396       C  0.57093932  0.58838265  0.76607704    -0.23900
H2397       H  0.59112448  0.76906724  0.78484789     0.09600
H2398       H  0.55775014  0.70768854  0.76763872     0.13200
H2399       H  0.67209069  0.74345279  0.81163507     0.11900
H2400       H  0.66714444  0.68305059  0.80481157     0.13100
H2401       H  0.63416236  0.61950950  0.78933934     0.12100
H2402       H  0.52607409  0.65092988  0.75726233     0.09200
H2403       H  0.49655211  0.58836324  0.74180040     0.12500
H2404       H  0.58329015  0.57054155  0.76787237     0.14400
C2405       C  0.56749262  0.61108388  0.53276399    -0.01100
C2406       C  0.58686480  0.60973426  0.55092353    -0.09200
C2407       C  0.59883676  0.63757959  0.56674702    -0.18000
C2408       C  0.59103841  0.66740250  0.56504586     0.04400
C2409       C  0.57117888  0.66840406  0.54654184     0.18600
C2410       C  0.56017188  0.64072295  0.53051080    -0.19400
C2411       C  0.56199180  0.69676375  0.54422671    -0.20700
C2412       C  0.57261471  0.72466004  0.55974961    -0.19200
C2413       C  0.59294348  0.72502632  0.57786742     0.20000
C2414       C  0.60227074  0.69630707  0.58093408     0.02100
C2415       C  0.62303265  0.69830863  0.59956152    -0.14000
C2416       C  0.63535649  0.72847985  0.61396484    -0.11700
C2417       C  0.62681918  0.75706937  0.61046052     0.01600
C2418       C  0.60496182  0.75471400  0.59265133    -0.23900
H2419       H  0.59271930  0.58689347  0.55291841     0.09600
H2420       H  0.61364237  0.63464419  0.58020038     0.13200
H2421       H  0.54464983  0.64145513  0.51659873     0.11900
H2422       H  0.54656504  0.69744643  0.53027138     0.13100
H2423       H  0.56535318  0.74645459  0.55741250     0.12100
H2424       H  0.63117712  0.67768556  0.60315053     0.09200
H2425       H  0.65293002  0.73024735  0.62740573     0.12500
H2426       H  0.59830377  0.77685823  0.58993506     0.14400
C2427       C  0.73859468  0.86651947  0.60759571    -0.01100
C2428       C  0.76820332  0.85955756  0.61118420    -0.09200
C2429       C  0.79844986  0.87296538  0.59685498    -0.18000
C2430       C  0.79955768  0.89330751  0.57823553     0.04400
C2431       C  0.76890092  0.89949812  0.57453685     0.18600
C2432       C  0.73910192  0.88635398  0.58922487    -0.19400
C2433       C  0.76778533  0.91827031  0.55605197    -0.20700
C2434       C  0.79638681  0.93060876  0.54085820    -0.19200
C2435       C  0.82713221  0.92520708  0.54403686     0.20000
C2436       C  0.82955052  0.90713910  0.56298111     0.02100
C2437       C  0.86208341  0.90405371  0.56591273    -0.14000
C2438       C  0.89078836  0.91803961  0.55064792    -0.11700
C2439       C  0.88781317  0.93497040  0.53185037     0.01600
C2440       C  0.85583161  0.93825161  0.52851935    -0.23900
H2441       H  0.76765566  0.84316636  0.62494797     0.09600
H2442       H  0.82001042  0.86615102  0.60057552     0.13200
H2443       H  0.71595298  0.89123383  0.58616064     0.11900
H2444       H  0.74439982  0.92300725  0.55321250     0.13100
H2445       H  0.79456594  0.94471270  0.52656522     0.12100
H2446       H  0.86662721  0.89163536  0.58002067     0.09200
H2447       H  0.91552464  0.91553946  0.55354723     0.12500
H2448       H  0.85389753  0.95211561  0.51412852     0.14400
C2449       C  0.63046741  0.86778293  0.60708053    -0.01100
C2450       C  0.59244112  0.84523333  0.60110765    -0.09200
C2451       C  0.57816803  0.85571609  0.58382992    -0.18000
C2452       C  0.60197796  0.88910463  0.57193314     0.04400
C2453       C  0.64044768  0.91231886  0.57861961     0.18600
C2454       C  0.65422416  0.90143011  0.59605903    -0.19400
C2455       C  0.66506037  0.94599791  0.56773233    -0.20700
C2456       C  0.65204699  0.95775618  0.55054262    -0.19200
C2457       C  0.61427793  0.93582005  0.54369399     0.20000
C2458       C  0.58890667  0.90067163  0.55393012     0.02100
C2459       C  0.55129291  0.87915350  0.54600217    -0.14000
C2460       C  0.53856184  0.89360795  0.52994742    -0.11700
C2461       C  0.56310346  0.92919577  0.52100071     0.01600
C2462       C  0.60117556  0.94964686  0.52728710    -0.23900
H2463       H  0.57411850  0.81870078  0.60936839     0.09600
H2464       H  0.54855070  0.83685820  0.58007293     0.13200
H2465       H  0.68377943  0.91873977  0.60085160     0.11900
H2466       H  0.69445918  0.96361239  0.57272517     0.13100
H2467       H  0.67152878  0.98442513  0.54271517     0.12100
H2468       H  0.53065626  0.85168027  0.55232504     0.09200
H2469       H  0.50890971  0.87775602  0.52519630     0.12500
H2470       H  0.61990640  0.97751170  0.52040131     0.14400
C2471       C  0.62544022  0.75934798  0.65912253    -0.01100
C2472       C  0.58625505  0.73465006  0.65682948    -0.09200
C2473       C  0.56817427  0.69908245  0.66673269    -0.18000
C2474       C  0.58902456  0.68691383  0.67908729     0.04400
C2475       C  0.62865548  0.71287863  0.68196069     0.18600
C2476       C  0.64630301  0.74885713  0.67217803    -0.19400
C2477       C  0.65069302  0.70226082  0.69392593    -0.20700
C2478       C  0.63447547  0.66601617  0.70269928    -0.19200
C2479       C  0.59577485  0.63952989  0.69980667     0.20000
C2480       C  0.57230634  0.64971569  0.68822738     0.02100
C2481       C  0.53319268  0.62212892  0.68630641    -0.14000
C2482       C  0.51810922  0.58612905  0.69548690    -0.11700
C2483       C  0.54143864  0.57620843  0.70658026     0.01600
C2484       C  0.58025315  0.60298241  0.70867173    -0.23900
H2485       H  0.56983291  0.74250048  0.64670225     0.09600
H2486       H  0.53798765  0.68132156  0.66384534     0.13200
H2487       H  0.67678889  0.76777310  0.67362392     0.11900
H2488       H  0.68087476  0.72196956  0.69623426     0.13100
H2489       H  0.65240798  0.65855190  0.71171717     0.12100
H2490       H  0.51318912  0.62775512  0.67822734     0.09200
H2491       H  0.98785969  0.56678989  0.69486565     0.12500
H2492       H  0.59814664  0.59559064  0.71784585     0.14400
C2493       C  0.92590035  0.95792085  0.70422169    -0.01100
C2494       C  0.92055578  0.97633155  0.68690575    -0.09200
C2495       C  0.88507723  0.96075344  0.67690601    -0.18000
C2496       C  0.85363255  0.92600078  0.68404748     0.04400
C2497       C  0.86001359  0.90608430  0.70061489     0.18600
C2498       C  0.89604678  0.92173199  0.71014444    -0.19400
C2499       C  0.83024325  0.87102757  0.70787642    -0.20700
C2500       C  0.79419696  0.85496124  0.69880964    -0.19200
C2501       C  0.78688506  0.87385384  0.68250197     0.20000
C2502       C  0.81628838  0.91005342  0.67519980     0.02100
C2503       C  0.80690107  0.92877335  0.65946081    -0.14000
C2504       C  0.77066777  0.91110814  0.65034364    -0.11700
C2505       C  0.74276543  0.87424049  0.65642063     0.01600
C2506       C  0.75051429  0.85641221  0.67311906    -0.23900
H2507       H  0.94631672  0.50813548  0.68426655     0.09600
H2508       H  0.88308540  0.97675847  0.66378987     0.13200
H2509       H  0.90047187  0.90639547  0.72289045     0.11900
H2510       H  0.83491397  0.85584394  0.72061089     0.13100
H2511       H  0.77187743  0.82753387  0.70458228     0.12100
H2512       H  0.82695196  0.95693007  0.65376652     0.09200
H2513       H  0.76472643  0.92589329  0.63793869     0.12500
H2514       H  0.72874657  0.82826826  0.67820058     0.14400
C2515       C  0.63223680  0.87515436  0.65568061    -0.01100
C2516       C  0.64246176  0.91226347  0.64990030    -0.09200
C2517       C  0.62472853  0.93013158  0.65917877    -0.18000
C2518       C  0.59621499  0.91143859  0.67485007     0.04400
C2519       C  0.58756616  0.87456519  0.68158047     0.18600
C2520       C  0.60564901  0.85686283  0.67200385    -0.19400
C2521       C  0.56048938  0.85535921  0.69757793    -0.20700
C2522       C  0.54140474  0.87171845  0.70686773    -0.19200
C2523       C  0.54870757  0.90757350  0.70028488     0.20000
C2524       C  0.57616383  0.92802653  0.68416326     0.02100
C2525       C  0.58215122  0.96408447  0.67805768    -0.14000
C2526       C  0.56312881  0.97989972  0.68833449    -0.11700
C2527       C  0.53742675  0.96024818  0.70480414     0.01600
C2528       C  0.52915691  0.92343199  0.71005342    -0.23900
H2529       H  0.66417721  0.92751704  0.63797032     0.09600
H2530       H  0.63395816  0.95854565  0.65370074     0.13200
H2531       H  0.59805253  0.82828625  0.67669947     0.11900
H2532       H  0.55394723  0.82742584  0.70291004     0.13100
H2533       H  0.02070950  0.85616624  0.71929120     0.12100
H2534       H  0.60175380  0.98104656  0.66561847     0.09200
H2535       H  0.57034341  0.50748550  0.68391654     0.12500
H2536       H  0.00843529  0.90768388  0.72244657     0.14400
loop_ 
_geom_bond_atom_site_label_1 
_geom_bond_atom_site_label_2 
_geom_bond_distance 
_geom_bond_site_symmetry_2 
_ccdc_geom_bond_type 
C1            H2   1.110       .  S
C1            C7   1.526       .  S
C1            C6   1.520       .  S
C1            C5   1.521       .  S
C3            H4   1.111       .  S
C3            C9   1.551       .  S
C3            C8   1.551       .  S
C3           C10   1.550       .  S
C5            C8   1.376       .  D
C5          C525   1.490       .  S
C6            C9   1.374       .  D
C6          C547   1.468       .  S
C7           C10   1.376       .  D
C7          C515   1.487       .  S
C8          C603   1.478       .  S
C9          C613   1.493       .  S
C10         C569   1.488       .  S
C11          H12   1.111       .  S
C11          C17   1.546       .  S
C11          C16   1.547       .  S
C11          C15   1.547       .  S
C13          H14   1.113       .  S
C13          C19   1.520       .  S
C13          C18   1.517       .  S
C13          C20   1.521       .  S
C15          C18   1.369       .  D
C15         C481   1.474       .  S
C16          C19   1.371       .  D
C16         C437   1.486       .  S
C17          C20   1.374       .  D
C17         C459   1.483       .  S
C18         C383   1.471       .  S
C19         C393   1.467       .  S
C20         C427   1.473       .  S
C21          H22   1.111       .  S
C21          C26   1.532   1_565  S
C21         C661   1.539       .  S
C21        C1927   1.538   1_455  S
C23         H658   1.111       .  S
C23          C29   1.542   1_565  S
C23        C1930   1.542   1_455  S
C23         C664   1.541       .  S
H24         C657   1.111       .  S
C25        C1923   1.541       .  S
C25          C28   1.377       .  D
C25         C449   1.490       .  S
C26          C29   1.372       .  D
C26         C493   1.476       .  S
C27         C655   1.541       .  S
C27          C30   1.380       .  D
C27         C471   1.487       .  S
C28        C1925   1.537       .  S
C28         C591   1.484       .  S
C29         C581   1.491       .  S
C30         C657   1.542       .  S
C30         C625   1.497       .  S
C31          H32   1.111       .  S
C31          C37   1.548       .  S
C31          C36   1.553       .  S
C31          C35   1.549       .  S
C33          H34   1.113       .  S
C33          C39   1.520       .  S
C33          C38   1.522       .  S
C33          C40   1.525       .  S
C35          C38   1.370       .  D
C35         C317   1.490       .  S
C36          C39   1.373       .  D
C36         C361   1.487       .  S
C37          C40   1.373       .  D
C37         C327   1.485       .  S
C38         C261   1.467       .  S
C39         C239   1.474       .  S
C40         C295   1.474       .  S
C41          H42   1.112       .  S
C41          C47   1.518       .  S
C41          C46   1.521       .  S
C41          C45   1.520       .  S
C43          H44   1.111       .  S
C43          C49   1.549       .  S
C43          C48   1.549       .  S
C43          C50   1.551       .  S
C45          C48   1.374       .  D
C45         C119   1.476       .  S
C46          C49   1.374       .  D
C46         C151   1.475       .  S
C47          C50   1.374       .  D
C47         C141   1.477       .  S
C48         C229   1.485       .  S
C49         C195   1.488       .  S
C50         C173   1.483       .  S
C51          H52   1.111       .  S
C51        C1959   1.541   1_455  S
C51        C1324   1.542   1_455  S
C51         C689   1.538       .  S
C53          H54   1.111       .  S
C53        C1327   1.537   1_455  S
C53         C692   1.540       .  S
C53        C1962   1.539   1_455  S
C55         C685   1.538   1_545  S
C55          C58   1.375       .  D
C55         C349   1.487       .  S
C56        C1319   1.542       .  S
C56          C59   1.376       .  D
C56         C305   1.493       .  S
C57        C1953   1.536   1_545  S
C57          C60   1.376       .  D
C57         C339   1.485       .  S
C58         C687   1.542   1_545  S
C58         C217   1.486       .  S
C59        C1321   1.537       .  S
C59         C185   1.482       .  S
C60        C1955   1.541   1_545  S
C60         C207   1.489       .  S
O61          C77   1.273       .  A
O61       Zn1335   2.001   1_455  S
C62          O78   1.274       .  A
C62          O75   1.274       .  A
C62         C405   1.473       .  S
O63          C76   1.269       .  A
O63       Cd1338   2.034       .  S
O64          C82   1.275   1_556  A
O64         Cd73   2.082       .  S
O65          C79   1.273       .  A
O65        Cd703   2.046       .  S
O66          C77   1.274       .  A
O66         Cd69   2.063       .  S
Zn67         O80   2.036       .  S
Zn67       O1329   2.001       .  S
Zn67        O712   2.014   1_545  S
Zn67       O1340   1.943       .  S
O68          C79   1.276       .  A
O68       Cd1341   2.075   1_455  S
Cd69         O71   2.074       .  S
Cd69        O699   2.052   1_545  S
Cd69         O72   1.993       .  S
Cd70         O74   2.037       .  S
Cd70       O1331   2.034   1_455  S
Cd70       O1985   2.033   1_445  S
Cd70         O72   1.967   1_554  S
O71          C81   1.275   1_556  A
O72       Zn1335   1.943   1_455  S
O72       Cd1975   2.000   1_445  S
Cd73         O75   2.057       .  S
Cd73       O1336   2.075       .  S
Cd73       O1974   2.004       .  S
O74          C81   1.270       .  A
C76          O80   1.276   1_554  A
C76         C163   1.470       .  S
C77         C371   1.478       .  S
O78        Zn701   2.005       .  S
C79         C415   1.473       .  S
C81         C107   1.468       .  S
C82          O83   1.269       .  A
C82         C129   1.469       .  S
O83       Cd1972   2.029       .  S
O84         C100   1.274       .  A
O84       Zn1358   2.001       .  S
C85         O101   1.273       .  A
C85          O98   1.275       .  A
C85         C251   1.479       .  S
O86          C99   1.268       .  A
O86         Cd93   2.035       .  S
O87         C105   1.278       .  A
O87         Cd96   2.085       .  S
O88         C102   1.274       .  A
O88        Cd726   2.056   1_545  S
O89         C100   1.276       .  A
O89         Cd92   2.074       .  S
Zn90        O103   2.032       .  S
Zn90       O1352   2.001   1_455  S
Zn90        O735   2.000       .  S
Zn90         O95   1.940       .  S
O91         C102   1.275       .  A
O91       Cd1364   2.071       .  S
Cd92         O94   2.082       .  S
Cd92        O722   2.066       .  S
Cd92       O1363   2.001       .  S
Cd93       O1365   2.049   1_455  S
Cd93        O740   2.044       .  S
Cd93         O95   1.976       .  S
O94         C104   1.276       .  A
O95       Cd1360   2.001   1_455  S
O95        Cd730   2.000       .  S
Cd96         O98   2.070       .  S
Cd96       O1359   2.071   1_455  S
Cd96        O729   2.000   1_545  S
O97         C104   1.272       .  A
O97       Cd1361   2.049       .  S
C99         O103   1.273       .  A
C99         C559   1.459       .  S
C100        C273   1.478       .  S
O101       Zn724   1.997   1_545  S
C102        C283   1.472       .  S
C104        C537   1.475       .  S
C105        O106   1.272       .  A
C105        C503   1.477       .  S
O106       Cd727   2.049   1_545  S
C107        C108   1.397       .  A
C107        C112   1.400       .  A
C108        C109   1.395       .  A
C108        H121   1.084       .  S
C109        C110   1.416       .  A
C109        H122   1.077       .  S
C110        C116   1.424       .  A
C110        C111   1.420       .  A
C111        C113   1.399       .  A
C111        C112   1.399       .  A
C112        H123   1.085       .  S
C113        C114   1.389       .  A
C113        H124   1.084       .  S
C114        C115   1.398       .  A
C114        H125   1.083       .  S
C115        C116   1.423       .  A
C115        C120   1.402       .  A
C116        C117   1.412       .  A
C117        C118   1.391       .  A
C117        H126   1.077       .  S
C118        C119   1.398       .  A
C118        H127   1.084       .  S
C119        C120   1.398       .  A
C120        H128   1.083       .  S
C129        C130   1.398       .  A
C129        C134   1.399       .  A
C130        C131   1.398       .  A
C130        H143   1.083       .  S
C131        C132   1.418       .  A
C131        H144   1.077       .  S
C132        C138   1.425       .  A
C132        C133   1.420       .  A
C133        C135   1.399       .  A
C133        C134   1.396       .  A
C134        H145   1.085       .  S
C135        C136   1.387       .  A
C135        H146   1.084       .  S
C136        C137   1.397       .  A
C136        H147   1.083       .  S
C137        C138   1.424       .  A
C137        C142   1.401       .  A
C138        C139   1.412       .  A
C139        C140   1.392       .  A
C139        H148   1.076       .  S
C140        C141   1.399       .  A
C140        H149   1.084       .  S
C141        C142   1.396       .  A
C142        H150   1.083       .  S
C151        C152   1.398       .  A
C151        C156   1.397       .  A
C152        C153   1.391       .  A
C152        H165   1.084       .  S
C153        C154   1.412       .  A
C153        H166   1.077       .  S
C154        C160   1.425       .  A
C154        C155   1.424       .  A
C155        C157   1.398       .  A
C155        C156   1.404       .  A
C156        H167   1.084       .  S
C157        C158   1.389       .  A
C157        H168   1.084       .  S
C158        C159   1.400       .  A
C158        H803   1.084       .  S
C159        C160   1.420       .  A
C159        C164   1.400       .  A
C160        C161   1.417       .  A
C161        C162   1.396       .  A
C161        H170   1.077       .  S
C162        C163   1.397       .  A
C162        H171   1.083       .  S
C163        C164   1.401       .  A
C164        H172   1.085       .  S
H169        C792   1.084       .  S
C173        C174   1.396       .  A
C173        C178   1.403       .  A
C174        C175   1.396       .  A
C174        H187   1.084       .  S
C175        C176   1.416       .  A
C175        H188   1.077       .  S
C176        C182   1.429       .  A
C176        C177   1.421       .  A
C177        C179   1.401       .  A
C177        C178   1.406       .  A
C178        H189   1.084       .  S
C179        C180   1.392       .  A
C179        H190   1.084       .  S
C180        C181   1.400       .  A
C180        H191   1.084       .  S
C181        C182   1.424       .  A
C181        C186   1.408       .  A
C182        C183   1.413       .  A
C183        C184   1.393       .  A
C183        H192   1.077       .  S
C184        C185   1.398       .  A
C184       H1461   1.084       .  S
C185        C186   1.399       .  A
C186        H194   1.085       .  S
H193       C1452   1.084   1_455  S
C195        C196   1.398       .  A
C195        C200   1.402       .  A
C196        C197   1.401       .  A
C196        H209   1.083       .  S
C197        C198   1.418       .  A
C197        H210   1.078       .  S
C198        C204   1.434       .  A
C198        C199   1.422       .  A
C199        C201   1.400       .  A
C199        C200   1.406       .  A
C200        H211   1.084       .  S
C201        C202   1.391       .  A
C201        H212   1.084       .  S
C202        C203   1.399       .  A
C202       H1481   1.084       .  S
C203        C204   1.425       .  A
C203        C208   1.409       .  A
C204        C205   1.414       .  A
C205        C206   1.397       .  A
C205        H214   1.077       .  S
C206        C207   1.402       .  A
C206        H849   1.084   1_545  S
C207        C208   1.398       .  A
C208       H1484   1.085       .  S
H213       C1470   1.084   1_455  S
H215        C840   1.083       .  S
H216       C1476   1.085   1_455  S
C217        C218   1.396       .  A
C217        C222   1.402       .  A
C218        C219   1.400       .  A
C218        H231   1.084   1_545  S
C219        C220   1.418       .  A
C219        H232   1.077       .  S
C220        C226   1.433       .  A
C220        C221   1.422       .  A
C221        C223   1.400       .  A
C221        C222   1.405       .  A
C222        H233   1.085       .  S
C223        C224   1.391       .  A
C223        H234   1.084       .  S
C224        C225   1.400       .  A
C224        H235   1.084       .  S
C225        C226   1.425       .  A
C225        C230   1.409       .  A
C226        C227   1.414       .  A
C227        C228   1.396       .  A
C227        H236   1.077       .  S
C228        C229   1.399       .  A
C228        H237   1.083       .  S
C229        C230   1.399       .  A
C230        H238   1.085       .  S
C239        C240   1.397       .  A
C239        C244   1.395       .  A
C240        C241   1.395       .  A
C240        H253   1.083       .  S
C241        C242   1.414       .  A
C241        H254   1.077       .  S
C242        C248   1.428       .  A
C242        C243   1.425       .  A
C243        C245   1.398       .  A
C243        C244   1.404       .  A
C244        H255   1.085       .  S
C245        C246   1.388       .  A
C245        H256   1.084       .  S
C246        C247   1.399       .  A
C246        H257   1.084   1_545  S
C247        C248   1.421       .  A
C247        C252   1.400       .  A
C248        C249   1.416       .  A
C249        C250   1.398       .  A
C249        H258   1.077       .  S
C250        C251   1.401       .  A
C250        H259   1.083       .  S
C251        C252   1.402       .  A
C252        H260   1.084       .  S
C261        C262   1.394       .  A
C261        C266   1.395       .  A
C262        C263   1.394       .  A
C262        H275   1.084       .  S
C263        C264   1.415       .  A
C263        H276   1.077       .  S
C264        C270   1.426       .  A
C264        C265   1.423       .  A
C265        C267   1.398       .  A
C265        C266   1.401       .  A
C266        H277   1.085       .  S
C267        C268   1.389       .  A
C267        H278   1.084       .  S
C268        C269   1.400       .  A
C268       H1547   1.084       .  S
C269        C270   1.421       .  A
C269        C274   1.401       .  A
C270        C271   1.415       .  A
C271        C272   1.396       .  A
C271        H280   1.077       .  S
C272        C273   1.400       .  A
C272        H281   1.083       .  S
C273        C274   1.402       .  A
C274       H1550   1.084       .  S
H279       C1536   1.084       .  S
H282       C1542   1.084       .  S
C283        C284   1.398       .  A
C283        C288   1.400       .  A
C284        C285   1.394       .  A
C284        H931   1.083       .  S
C285        C286   1.415       .  A
C285        H298   1.077       .  S
C286        C292   1.427       .  A
C286        C287   1.422       .  A
C287        C289   1.400       .  A
C287        C288   1.404       .  A
C288        H299   1.085       .  S
C289        C290   1.390       .  A
C289       H1568   1.084       .  S
C290        C291   1.399       .  A
C290        H301   1.084       .  S
C291        C292   1.424       .  A
C291        C296   1.405       .  A
C292        C293   1.414       .  A
C293        C294   1.392       .  A
C293        H302   1.077       .  S
C294        C295   1.395       .  A
C294        H303   1.084       .  S
C295        C296   1.398       .  A
C296        H304   1.085       .  S
H297        C918   1.083       .  S
H300       C1557   1.084   1_455  S
C305        C306   1.399       .  A
C305        C310   1.402       .  A
C306        C307   1.404       .  A
C306        H319   1.084       .  S
C307        C308   1.420       .  A
C307        H320   1.075       .  S
C308        C314   1.437       .  A
C308        C309   1.422       .  A
C309        C311   1.400       .  A
C309        C310   1.407       .  A
C310        H321   1.083       .  S
C311        C312   1.391       .  A
C311        H322   1.083       .  S
C312        C313   1.399       .  A
C312        H323   1.083       .  S
C313        C314   1.426       .  A
C313        C318   1.412       .  A
C314        C315   1.415       .  A
C315        C316   1.400       .  A
C315        H324   1.075       .  S
C316        C317   1.401       .  A
C316        H325   1.084       .  S
C317        C318   1.399       .  A
C318        H326   1.084       .  S
C327        C328   1.397       .  A
C327        C332   1.403       .  A
C328        C329   1.398       .  A
C328        H341   1.083       .  S
C329        C330   1.417       .  A
C329        H342   1.077       .  S
C330        C336   1.431       .  A
C330        C331   1.421       .  A
C331        C333   1.401       .  A
C331        C332   1.407       .  A
C332        H343   1.084       .  S
C333        C334   1.392       .  A
C333        H344   1.083       .  S
C334        C335   1.400       .  A
C334        H345   1.084   1_545  S
C335        C336   1.424       .  A
C335        C340   1.410       .  A
C336        C337   1.414       .  A
C337        C338   1.394       .  A
C337        H346   1.077       .  S
C338        C339   1.399       .  A
C338        H347   1.084       .  S
C339        C340   1.399       .  A
C340        H982   1.084   1_545  S
H348        C974   1.084       .  S
C349        C350   1.400       .  A
C349        C354   1.398       .  A
C350        C351   1.398       .  A
C350        H363   1.083   1_545  S
C351        C352   1.415       .  A
C351        H364   1.078       .  S
C352        C358   1.434       .  A
C352        C353   1.425       .  A
C353        C355   1.399       .  A
C353        C354   1.409       .  A
C354        H365   1.085       .  S
C355        C356   1.391       .  A
C355        H366   1.084       .  S
C356        C357   1.400       .  A
C356        H367   1.084       .  S
C357        C358   1.422       .  A
C357        C362   1.406       .  A
C358        C359   1.418       .  A
C359        C360   1.400       .  A
C359        H368   1.078       .  S
C360        C361   1.398       .  A
C360        H369   1.084       .  S
C361        C362   1.401       .  A
C362        H370   1.085       .  S
C371        C372   1.401       .  A
C371        C376   1.402       .  A
C372        C373   1.392       .  A
C372        H385   1.083       .  S
C373        C374   1.412       .  A
C373        H386   1.077       .  S
C374        C380   1.425       .  A
C374        C375   1.422       .  A
C375        C377   1.399       .  A
C375        C376   1.404       .  A
C376        H387   1.085       .  S
C377        C378   1.390       .  A
C377        H388   1.084       .  S
C378        C379   1.399       .  A
C378        H389   1.084       .  S
C379        C380   1.422       .  A
C379        C384   1.401       .  A
C380        C381   1.416       .  A
C381        C382   1.394       .  A
C381        H390   1.077       .  S
C382        C383   1.394       .  A
C382        H391   1.083       .  S
C383        C384   1.396       .  A
C384        H392   1.083       .  S
C393        C394   1.394       .  A
C393        C398   1.393       .  A
C394        C395   1.395       .  A
C394        H407   1.083       .  S
C395        C396   1.417       .  A
C395        H408   1.079       .  S
C396        C402   1.425       .  A
C396        C397   1.422       .  A
C397        C399   1.398       .  A
C397        C398   1.396       .  A
C398        H409   1.082       .  S
C399        C400   1.386       .  A
C399        H410   1.084       .  S
C400        C401   1.398       .  A
C400        H411   1.084       .  S
C401        C402   1.423       .  A
C401        C406   1.400       .  A
C402        C403   1.413       .  A
C403        C404   1.393       .  A
C403        H412   1.079       .  S
C404        C405   1.400       .  A
C404        H413   1.083       .  S
C405        C406   1.399       .  A
C406        H414   1.085       .  S
C415        C416   1.401       .  A
C415        C420   1.399       .  A
C416        C417   1.392       .  A
C416        H429   1.083       .  S
C417        C418   1.412       .  A
C417        H430   1.078       .  S
C418        C424   1.425       .  A
C418        C419   1.424       .  A
C419        C421   1.399       .  A
C419        C420   1.403       .  A
C420        H431   1.085       .  S
C421        C422   1.389       .  A
C421        H432   1.084       .  S
C422        C423   1.399       .  A
C422        H433   1.084       .  S
C423        C424   1.421       .  A
C423        C428   1.399       .  A
C424        C425   1.417       .  A
C425        C426   1.395       .  A
C425        H434   1.077       .  S
C426        C427   1.396       .  A
C426        H435   1.084       .  S
C427        C428   1.396       .  A
C428        H436   1.082       .  S
C437        C438   1.400       .  A
C437        C442   1.399       .  A
C438        C439   1.395       .  A
C438        H451   1.083       .  S
C439        C440   1.414       .  A
C439        H452   1.079       .  S
C440        C446   1.432       .  A
C440        C441   1.425       .  A
C441        C443   1.400       .  A
C441        C442   1.410       .  A
C442        H453   1.083       .  S
C443        C444   1.392       .  A
C443        H454   1.084       .  S
C444        C445   1.400       .  A
C444        H455   1.084       .  S
C445        C446   1.422       .  A
C445        C450   1.407       .  A
C446        C447   1.416       .  A
C447        C448   1.397       .  A
C447        H456   1.078       .  S
C448        C449   1.395       .  A
C448        H457   1.082       .  S
C449        C450   1.404       .  A
C450        H458   1.085       .  S
C459        C460   1.400       .  A
C459        C464   1.398       .  A
C460        C461   1.393       .  A
C460        H473   1.083       .  S
C461        C462   1.413       .  A
C461        H474   1.078       .  S
C462        C468   1.429       .  A
C462        C463   1.424       .  A
C463        C465   1.399       .  A
C463        C464   1.407       .  A
C464        H475   1.083       .  S
C465        C466   1.391       .  A
C465        H476   1.084       .  S
C466        C467   1.400       .  A
C466        H477   1.084       .  S
C467        C468   1.421       .  A
C467        C472   1.404       .  A
C468        C469   1.416       .  A
C469        C470   1.395       .  A
C469        H478   1.077       .  S
C470        C471   1.395       .  A
C470       H1747   1.082   1_455  S
C471        C472   1.403       .  A
C472        H480   1.085       .  S
H479       C1738   1.082       .  S
C481        C482   1.395       .  A
C481        C486   1.397       .  A
C482        C483   1.399       .  A
C482        H495   1.084       .  S
C483        C484   1.418       .  A
C483        H496   1.078       .  S
C484        C490   1.429       .  A
C484        C485   1.422       .  A
C485        C487   1.398       .  A
C485        C486   1.400       .  A
C486        H497   1.085       .  S
C487        C488   1.388       .  A
C487        H498   1.084       .  S
C488        C489   1.398       .  A
C488        H499   1.084       .  S
C489        C490   1.425       .  A
C489        C494   1.404       .  A
C490        C491   1.414       .  A
C491        C492   1.395       .  A
C491        H500   1.078       .  S
C492        C493   1.398       .  A
C492        H501   1.083   1_455  S
C493        C494   1.394       .  A
C494        H502   1.085       .  S
C503        C504   1.402       .  A
C503        C508   1.399       .  A
C504        C505   1.396       .  A
C504        H517   1.084       .  S
C505        C506   1.413       .  A
C505        H518   1.077       .  S
C506        C512   1.428       .  A
C506        C507   1.424       .  A
C507        C509   1.398       .  A
C507        C508   1.403       .  A
C508        H519   1.084       .  S
C509        C510   1.387       .  A
C509        H520   1.084       .  S
C510        C511   1.399       .  A
C510        H521   1.084       .  S
C511        C512   1.420       .  A
C511        C516   1.398       .  A
C512        C513   1.417       .  A
C513        C514   1.399       .  A
C513        H522   1.077       .  S
C514        C515   1.401       .  A
C514        H523   1.082       .  S
C515        C516   1.400       .  A
C516        H524   1.083       .  S
C525        C526   1.400       .  A
C525        C530   1.401       .  A
C526        C527   1.398       .  A
C526        H539   1.083       .  S
C527        C528   1.417       .  A
C527        H540   1.076       .  S
C528        C534   1.429       .  A
C528        C529   1.420       .  A
C529        C531   1.400       .  A
C529        C530   1.400       .  A
C530        H541   1.080       .  S
C531        C532   1.388       .  A
C531        H542   1.084       .  S
C532        C533   1.398       .  A
C532        H543   1.084       .  S
C533        C534   1.425       .  A
C533        C538   1.405       .  A
C534        C535   1.413       .  A
C535        C536   1.394       .  A
C535        H544   1.077       .  S
C536        C537   1.400       .  A
C536        H545   1.084       .  S
C537        C538   1.399       .  A
C538        H546   1.085       .  S
C547        C548   1.393       .  A
C547        C552   1.397       .  A
C548        C549   1.394       .  A
C548        H561   1.083       .  S
C549        C550   1.416       .  A
C549        H562   1.078       .  S
C550        C556   1.425       .  A
C550        C551   1.422       .  A
C551        C553   1.399       .  A
C551        C552   1.400       .  A
C552        H563   1.085       .  S
C553        C554   1.390       .  A
C553        H564   1.084       .  S
C554        C555   1.399       .  A
C554        H565   1.084       .  S
C555        C556   1.423       .  A
C555        C560   1.403       .  A
C556        C557   1.414       .  A
C557        C558   1.393       .  A
C557        H566   1.078       .  S
C558        C559   1.395       .  A
C558        H567   1.084       .  S
C559        C560   1.397       .  A
C560        H568   1.085       .  S
C569        C570   1.400       .  A
C569        C574   1.400       .  A
C570        C571   1.396       .  A
C570        H583   1.083       .  S
C571        C572   1.414       .  A
C571        H584   1.079       .  S
C572        C578   1.433       .  A
C572        C573   1.425       .  A
C573        C575   1.400       .  A
C573        C574   1.410       .  A
C574        H585   1.083       .  S
C575        C576   1.392       .  A
C575        H586   1.084       .  S
C576        C577   1.400       .  A
C576        H587   1.084       .  S
C577        C578   1.422       .  A
C577        C582   1.406       .  A
C578        C579   1.417       .  A
C579        C580   1.399       .  A
C579        H588   1.079       .  S
C580        C581   1.396       .  A
C580       H1857   1.078   1_455  S
C581        C582   1.403       .  A
C582        H590   1.085       .  S
H589       C1848   1.078       .  S
C591        C592   1.397       .  A
C591        C596   1.400       .  A
C592        C593   1.397       .  A
C592       H1239   1.076       .  S
C593        C594   1.415       .  A
C593        H606   1.078       .  S
C594        C600   1.428       .  A
C594        C595   1.421       .  A
C595        C597   1.398       .  A
C595        C596   1.400       .  A
C596        H607   1.085       .  S
C597        C598   1.388       .  A
C597        H608   1.084       .  S
C598        C599   1.398       .  A
C598        H609   1.084       .  S
C599        C600   1.424       .  A
C599        C604   1.404       .  A
C600        C601   1.414       .  A
C601        C602   1.395       .  A
C601        H610   1.078       .  S
C602        C603   1.400       .  A
C602        H611   1.084       .  S
C603        C604   1.395       .  A
C604        H612   1.083       .  S
H605       C1226   1.079   1_545  S
C613        C614   1.401       .  A
C613        C618   1.402       .  A
C614        C615   1.395       .  A
C614        H627   1.081       .  S
C615        C616   1.412       .  A
C615        H628   1.077       .  S
C616        C622   1.434       .  A
C616        C617   1.425       .  A
C617        C619   1.400       .  A
C617        C618   1.413       .  A
C618        H629   1.085       .  S
C619        C620   1.393       .  A
C619        H630   1.084       .  S
C620        C621   1.401       .  A
C620       H1899   1.084       .  S
C621        C622   1.420       .  A
C621        C626   1.407       .  A
C622        C623   1.418       .  A
C623        C624   1.401       .  A
C623        H632   1.077       .  S
C624        C625   1.398       .  A
C624       H1267   1.083       .  S
C625        C626   1.407       .  A
C626       H1902   1.084       .  S
H631       C1888   1.084       .  S
H633       C1258   1.083   1_545  S
H634       C1894   1.084       .  S
C635        H636   1.112       .  S
C635        C641   1.523       .  S
C635        C640   1.517       .  S
C635        C639   1.523       .  S
C637        H638   1.111       .  S
C637        C643   1.548       .  S
C637        C642   1.547       .  S
C637        C644   1.545       .  S
C639        C642   1.377       .  D
C639       C1159   1.480       .  S
C640        C643   1.371       .  D
C640       C1181   1.466       .  S
C641        C644   1.372       .  D
C641       C1149   1.481       .  S
C642       C1237   1.485       .  S
C643       C1247   1.483       .  S
C644       C1203   1.478       .  S
C645        H646   1.111       .  S
C645        C651   1.546       .  S
C645        C650   1.546       .  S
C645        C649   1.546       .  S
C647        H648   1.112       .  S
C647        C653   1.524       .  S
C647        C652   1.520       .  S
C647        C654   1.523       .  S
C649        C652   1.369       .  D
C649       C1115   1.478       .  S
C650        C653   1.374       .  D
C650       C1071   1.483       .  S
C651        C654   1.375       .  D
C651       C1093   1.487       .  S
C652       C1017   1.471       .  S
C653       C1027   1.476       .  S
C654       C1061   1.476       .  S
C655        H656   1.111       .  S
C655        C660   1.534       .  S
C655       C1293   1.541   1_455  S
C657        C663   1.540       .  S
C657       C1296   1.537   1_455  S
C659       C1289   1.538       .  S
C659        C662   1.378       .  D
C659       C1083   1.486       .  S
C660        C663   1.370       .  D
C660       C1127   1.481       .  S
C661        C664   1.379       .  D
C661       C1105   1.492       .  S
C662       C1291   1.542       .  S
C662       C1225   1.492       .  S
C663       C1215   1.482       .  S
C664       C1259   1.487       .  S
C665        H666   1.111       .  S
C665        C671   1.548       .  S
C665        C670   1.550       .  S
C665        C669   1.546       .  S
C667        H668   1.113       .  S
C667        C673   1.518       .  S
C667        C672   1.518       .  S
C667        C674   1.524       .  S
C669        C672   1.370       .  D
C669        C951   1.483       .  S
C670        C673   1.373       .  D
C670        C995   1.486       .  S
C671        C674   1.374       .  D
C671        C961   1.484       .  S
C672        C895   1.468       .  S
C673        C873   1.469       .  S
C674        C929   1.475       .  S
C675        H676   1.112       .  S
C675        C681   1.521       .  S
C675        C680   1.523       .  S
C675        C679   1.521       .  S
C677        H678   1.111       .  S
C677        C683   1.551       .  S
C677        C682   1.551       .  S
C677        C684   1.551       .  S
C679        C682   1.376       .  D
C679        C753   1.482       .  S
C680        C683   1.375       .  D
C680        C785   1.473       .  S
C681        C684   1.373       .  D
C681        C775   1.475       .  S
C682        C863   1.483       .  S
C683        C829   1.494       .  S
C684        C807   1.488       .  S
C685        H686   1.111       .  S
C685       C1325   1.536   1_465  S
C685       C1958   1.541   1_455  S
C687        H688   1.111       .  S
C687       C1961   1.539   1_455  S
C687       C1328   1.541   1_465  S
C689        C692   1.377       .  D
C689        C983   1.487       .  S
C690       C1953   1.541       .  S
C690        C693   1.377       .  D
C690        C939   1.487       .  S
C691       C1319   1.541       .  S
C691        C694   1.378       .  D
C691        C973   1.484       .  S
C692        C851   1.486       .  S
C693       C1955   1.539       .  S
C693        C819   1.489       .  S
C694       C1321   1.539       .  S
C694        C841   1.495       .  S
O695        C711   1.274       .  A
O695      Zn1969   2.006   1_455  S
C696        O712   1.274       .  A
C696        O709   1.275       .  A
C696       C1039   1.473       .  S
O697        C710   1.269       .  A
O697      Cd1972   2.028       .  S
O698        C716   1.275   1_556  A
O698       Cd707   2.080       .  S
O699        C713   1.274       .  A
O700        C711   1.274       .  A
O700       Cd703   2.067       .  S
Zn701      O1963   2.006       .  S
Zn701       O714   2.030       .  S
Zn701      O1974   1.940       .  S
O702        C713   1.276       .  A
O702      Cd1975   2.081   1_455  S
Cd703       O705   2.079       .  S
Cd703       O706   1.994       .  S
Cd704      O1965   2.028   1_455  S
Cd704       O708   2.039       .  S
Cd704      O1351   2.029   1_455  S
Cd704       O706   1.966   1_554  S
O705        C715   1.275   1_556  A
O706      Zn1969   1.940   1_455  S
O706      Cd1341   2.004   1_455  S
Cd707      O1970   2.081       .  S
Cd707       O709   2.057       .  S
Cd707      O1340   2.000   1_565  S
O708        C715   1.271       .  A
C710        O714   1.275   1_554  A
C710        C797   1.465       .  S
C711       C1005   1.480       .  S
C713       C1049   1.475       .  S
C715        C741   1.471       .  S
C716        O717   1.270       .  A
C716        C763   1.469       .  S
O717      Cd1338   2.033   1_565  S
O718        C734   1.273       .  A
O718      Zn1992   1.997       .  S
C719        O735   1.273       .  A
C719        O732   1.274       .  A
C719        C885   1.476       .  S
O720        C733   1.268       .  A
O720       Cd727   2.033       .  S
O721        C739   1.276       .  A
O721       Cd730   2.079       .  S
O722        C736   1.274       .  A
O723        C734   1.275       .  A
O723       Cd726   2.074       .  S
Zn724      O1986   1.997   1_455  S
Zn724       O737   2.022       .  S
Zn724       O729   1.935       .  S
O725        C736   1.275       .  A
O725      Cd1998   2.070       .  S
Cd726       O728   2.076       .  S
Cd726      O1997   2.001       .  S
Cd727      O1999   2.039   1_455  S
Cd727       O729   1.974       .  S
O728        C738   1.275       .  A
O729      Cd1994   2.001   1_455  S
Cd730      O1993   2.070       .  S
Cd730       O732   2.066       .  S
O731        C738   1.271       .  A
O731      Cd1995   2.039       .  S
C733        O737   1.272       .  A
C733       C1193   1.455       .  S
C734        C907   1.477       .  S
C736        C917   1.474       .  S
C738       C1171   1.468       .  S
C739        O740   1.271       .  A
C739       C1137   1.470       .  S
C741        C742   1.398       .  A
C741        C746   1.400       .  A
C742        C743   1.397       .  A
C742        H755   1.083       .  S
C743        C744   1.417       .  A
C743        H756   1.077       .  S
C744        C750   1.427       .  A
C744        C745   1.421       .  A
C745        C747   1.399       .  A
C745        C746   1.399       .  A
C746        H757   1.085       .  S
C747        C748   1.388       .  A
C747        H758   1.084       .  S
C748        C749   1.398       .  A
C748        H759   1.084       .  S
C749        C750   1.423       .  A
C749        C754   1.402       .  A
C750        C751   1.413       .  A
C751        C752   1.394       .  A
C751        H760   1.077       .  S
C752        C753   1.400       .  A
C752        H761   1.084       .  S
C753        C754   1.398       .  A
C754        H762   1.084       .  S
C763        C764   1.397       .  A
C763        C768   1.400       .  A
C764        C765   1.397       .  A
C764        H777   1.083       .  S
C765        C766   1.417       .  A
C765        H778   1.078       .  S
C766        C772   1.425       .  A
C766        C767   1.420       .  A
C767        C769   1.399       .  A
C767        C768   1.398       .  A
C768        H779   1.085       .  S
C769        C770   1.388       .  A
C769        H780   1.085       .  S
C770        C771   1.398       .  A
C770        H781   1.083       .  S
C771        C772   1.424       .  A
C771        C776   1.402       .  A
C772        C773   1.412       .  A
C773        C774   1.392       .  A
C773        H782   1.077       .  S
C774        C775   1.398       .  A
C774        H783   1.084       .  S
C775        C776   1.397       .  A
C776        H784   1.084       .  S
C785        C786   1.397       .  A
C785        C790   1.397       .  A
C786        C787   1.391       .  A
C786        H799   1.084       .  S
C787        C788   1.412       .  A
C787        H800   1.078       .  S
C788        C794   1.424       .  A
C788        C789   1.424       .  A
C789        C791   1.398       .  A
C789        C790   1.401       .  A
C790        H801   1.084       .  S
C791        C792   1.388       .  A
C791        H802   1.083       .  S
C792        C793   1.399       .  A
C793        C794   1.421       .  A
C793        C798   1.398       .  A
C794        C795   1.416       .  A
C795        C796   1.395       .  A
C795        H804   1.079       .  S
C796        C797   1.396       .  A
C796        H805   1.083       .  S
C797        C798   1.399       .  A
C798        H806   1.085       .  S
C807        C808   1.397       .  A
C807        C812   1.404       .  A
C808        C809   1.399       .  A
C808        H821   1.083       .  S
C809        C810   1.417       .  A
C809        H822   1.078       .  S
C810        C816   1.433       .  A
C810        C811   1.422       .  A
C811        C813   1.401       .  A
C811        C812   1.408       .  A
C812        H823   1.085       .  S
C813        C814   1.393       .  A
C813        H824   1.085       .  S
C814        C815   1.400       .  A
C814        H825   1.084       .  S
C815        C816   1.425       .  A
C815        C820   1.411       .  A
C816        C817   1.414       .  A
C817        C818   1.396       .  A
C817        H826   1.078       .  S
C818        C819   1.400       .  A
C818       H2095   1.083       .  S
C819        C820   1.400       .  A
C820        H828   1.085       .  S
H827       C2086   1.083   1_455  S
C829        C830   1.399       .  A
C829        C834   1.405       .  A
C830        C831   1.401       .  A
C830        H843   1.083       .  S
C831        C832   1.418       .  A
C831        H844   1.078       .  S
C832        C838   1.436       .  A
C832        C833   1.422       .  A
C833        C835   1.401       .  A
C833        C834   1.409       .  A
C834        H845   1.084       .  S
C835        C836   1.393       .  A
C835        H846   1.084       .  S
C836        C837   1.400       .  A
C836       H2115   1.084       .  S
C837        C838   1.425       .  A
C837        C842   1.413       .  A
C838        C839   1.414       .  A
C839        C840   1.398       .  A
C839        H848   1.078       .  S
C840        C841   1.402       .  A
C841        C842   1.401       .  A
C842       H2118   1.085       .  S
H847       C2104   1.084   1_455  S
H850       C2110   1.085   1_455  S
C851        C852   1.397       .  A
C851        C856   1.401       .  A
C852        C853   1.400       .  A
C852        H865   1.083       .  S
C853        C854   1.418       .  A
C853        H866   1.078       .  S
C854        C860   1.432       .  A
C854        C855   1.422       .  A
C855        C857   1.399       .  A
C855        C856   1.404       .  A
C856        H867   1.085       .  S
C857        C858   1.390       .  A
C857        H868   1.084       .  S
C858        C859   1.399       .  A
C858        H869   1.084       .  S
C859        C860   1.424       .  A
C859        C864   1.406       .  A
C860        C861   1.415       .  A
C861        C862   1.397       .  A
C861        H870   1.078       .  S
C862        C863   1.400       .  A
C862        H871   1.083       .  S
C863        C864   1.397       .  A
C864        H872   1.085       .  S
C873        C874   1.396       .  A
C873        C878   1.393       .  A
C874        C875   1.393       .  A
C874        H887   1.083       .  S
C875        C876   1.414       .  A
C875        H888   1.077       .  S
C876        C882   1.426       .  A
C876        C877   1.424       .  A
C877        C879   1.397       .  A
C877        C878   1.401       .  A
C878        H889   1.085       .  S
C879        C880   1.387       .  A
C879        H890   1.084       .  S
C880        C881   1.399       .  A
C880        H891   1.084       .  S
C881        C882   1.421       .  A
C881        C886   1.399       .  A
C882        C883   1.416       .  A
C883        C884   1.396       .  A
C883        H892   1.077       .  S
C884        C885   1.400       .  A
C884        H893   1.083       .  S
C885        C886   1.401       .  A
C886        H894   1.085       .  S
C895        C896   1.395       .  A
C895        C900   1.394       .  A
C896        C897   1.394       .  A
C896        H909   1.084       .  S
C897        C898   1.415       .  A
C897        H910   1.077       .  S
C898        C904   1.426       .  A
C898        C899   1.424       .  A
C899        C901   1.398       .  A
C899        C900   1.401       .  A
C900        H911   1.085       .  S
C901        C902   1.388       .  A
C901        H912   1.084       .  S
C902        C903   1.399       .  A
C902       H2181   1.084       .  S
C903        C904   1.421       .  A
C903        C908   1.400       .  A
C904        C905   1.415       .  A
C905        C906   1.396       .  A
C905        H914   1.078       .  S
C906        C907   1.400       .  A
C906        H915   1.083       .  S
C907        C908   1.401       .  A
C908       H2184   1.085       .  S
H913       C2170   1.084       .  S
H916       C2176   1.085       .  S
C917        C918   1.398       .  A
C917        C922   1.400       .  A
C918        C919   1.395       .  A
C919        C920   1.415       .  A
C919        H932   1.078       .  S
C920        C926   1.428       .  A
C920        C921   1.422       .  A
C921        C923   1.400       .  A
C921        C922   1.404       .  A
C922        H933   1.086       .  S
C923        C924   1.389       .  A
C923       H2202   1.085       .  S
C924        C925   1.398       .  A
C924        H935   1.084       .  S
C925        C926   1.424       .  A
C925        C930   1.404       .  A
C926        C927   1.414       .  A
C927        C928   1.392       .  A
C927        H936   1.078       .  S
C928        C929   1.396       .  A
C928        H937   1.084       .  S
C929        C930   1.397       .  A
C930        H938   1.085       .  S
H934       C2191   1.085   1_455  S
C939        C940   1.396       .  A
C939        C944   1.403       .  A
C940        C941   1.399       .  A
C940        H953   1.084       .  S
C941        C942   1.418       .  A
C941        H954   1.076       .  S
C942        C948   1.431       .  A
C942        C943   1.421       .  A
C943        C945   1.400       .  A
C943        C944   1.403       .  A
C944        H955   1.084       .  S
C945        C946   1.391       .  A
C945        H956   1.084       .  S
C946        C947   1.399       .  A
C946        H957   1.084       .  S
C947        C948   1.425       .  A
C947        C952   1.408       .  A
C948        C949   1.413       .  A
C949        C950   1.394       .  A
C949        H958   1.077       .  S
C950        C951   1.400       .  A
C950        H959   1.083       .  S
C951        C952   1.398       .  A
C952        H960   1.085       .  S
C961        C962   1.397       .  A
C961        C966   1.402       .  A
C962        C963   1.397       .  A
C962        H975   1.084       .  S
C963        C964   1.416       .  A
C963        H976   1.077       .  S
C964        C970   1.430       .  A
C964        C965   1.422       .  A
C965        C967   1.400       .  A
C965        C966   1.406       .  A
C966        H977   1.084       .  S
C967        C968   1.392       .  A
C967        H978   1.083       .  S
C968        C969   1.399       .  A
C968        H979   1.083       .  S
C969        C970   1.424       .  A
C969        C974   1.409       .  A
C970        C971   1.414       .  A
C971        C972   1.394       .  A
C971        H980   1.077       .  S
C972        C973   1.400       .  A
C972        H981   1.084       .  S
C973        C974   1.398       .  A
C983        C984   1.399       .  A
C983        C988   1.399       .  A
C984        C985   1.396       .  A
C984        H997   1.084       .  S
C985        C986   1.414       .  A
C985        H998   1.077       .  S
C986        C992   1.432       .  A
C986        C987   1.425       .  A
C987        C989   1.400       .  A
C987        C988   1.409       .  A
C988        H999   1.084       .  S
C989        C990   1.392       .  A
C989       H1000   1.084       .  S
C990        C991   1.400       .  A
C990       H1001   1.084       .  S
C991        C992   1.422       .  A
C991        C996   1.406       .  A
C992        C993   1.417       .  A
C993        C994   1.399       .  A
C993       H1002   1.078       .  S
C994        C995   1.396       .  A
C994       H1003   1.084       .  S
C995        C996   1.403       .  A
C996       H1004   1.085       .  S
C1005      C1006   1.401       .  A
C1005      C1010   1.403       .  A
C1006      C1007   1.393       .  A
C1006      H1019   1.083       .  S
C1007      C1008   1.413       .  A
C1007      H1020   1.077       .  S
C1008      C1014   1.427       .  A
C1008      C1009   1.422       .  A
C1009      C1011   1.400       .  A
C1009      C1010   1.405       .  A
C1010      H1021   1.085       .  S
C1011      C1012   1.390       .  A
C1011      H1022   1.085       .  S
C1012      C1013   1.399       .  A
C1012      H1023   1.084       .  S
C1013      C1014   1.422       .  A
C1013      C1018   1.403       .  A
C1014      C1015   1.416       .  A
C1015      C1016   1.394       .  A
C1015      H1024   1.076       .  S
C1016      C1017   1.393       .  A
C1016      H1025   1.084       .  S
C1017      C1018   1.397       .  A
C1018      H1026   1.084       .  S
C1027      C1028   1.398       .  A
C1027      C1032   1.394       .  A
C1028      C1029   1.398       .  A
C1028      H1041   1.083       .  S
C1029      C1030   1.417       .  A
C1029      H1042   1.078       .  S
C1030      C1036   1.426       .  A
C1030      C1031   1.421       .  A
C1031      C1033   1.398       .  A
C1031      C1032   1.396       .  A
C1032      H1043   1.082       .  S
C1033      C1034   1.386       .  A
C1033      H1044   1.085       .  S
C1034      C1035   1.398       .  A
C1034      H1045   1.084       .  S
C1035      C1036   1.423       .  A
C1035      C1040   1.399       .  A
C1036      C1037   1.414       .  A
C1037      C1038   1.397       .  A
C1037      H1046   1.078       .  S
C1038      C1039   1.401       .  A
C1038      H1047   1.083   1_565  S
C1039      C1040   1.398       .  A
C1040      H1048   1.085       .  S
C1049      C1050   1.400       .  A
C1049      C1054   1.401       .  A
C1050      C1051   1.391       .  A
C1050      H1063   1.084       .  S
C1051      C1052   1.412       .  A
C1051      H1064   1.077       .  S
C1052      C1058   1.426       .  A
C1052      C1053   1.423       .  A
C1053      C1055   1.400       .  A
C1053      C1054   1.407       .  A
C1054      H1065   1.084       .  S
C1055      C1056   1.391       .  A
C1055      H1066   1.083       .  S
C1056      C1057   1.400       .  A
C1056      H1067   1.084       .  S
C1057      C1058   1.421       .  A
C1057      C1062   1.402       .  A
C1058      C1059   1.416       .  A
C1059      C1060   1.394       .  A
C1059      H1068   1.077       .  S
C1060      C1061   1.396       .  A
C1060      H1069   1.084       .  S
C1061      C1062   1.399       .  A
C1062      H1070   1.084       .  S
C1071      C1072   1.399       .  A
C1071      C1076   1.399       .  A
C1072      C1073   1.392       .  A
C1072      H1085   1.084       .  S
C1073      C1074   1.413       .  A
C1073      H1086   1.075       .  S
C1074      C1080   1.429       .  A
C1074      C1075   1.424       .  A
C1075      C1077   1.400       .  A
C1075      C1076   1.409       .  A
C1076      H1087   1.082       .  S
C1077      C1078   1.392       .  A
C1077      H1088   1.083       .  S
C1078      C1079   1.400       .  A
C1078      H1089   1.084       .  S
C1079      C1080   1.421       .  A
C1079      C1084   1.405       .  A
C1080      C1081   1.416       .  A
C1081      C1082   1.395       .  A
C1081      H1090   1.075       .  S
C1082      C1083   1.394       .  A
C1082      H1091   1.078       .  S
C1083      C1084   1.403       .  A
C1084      H1092   1.084       .  S
C1093      C1094   1.400       .  A
C1093      C1098   1.399       .  A
C1094      C1095   1.395       .  A
C1094      H1107   1.084       .  S
C1095      C1096   1.414       .  A
C1095      H1108   1.077       .  S
C1096      C1102   1.431       .  A
C1096      C1097   1.423       .  A
C1097      C1099   1.400       .  A
C1097      C1098   1.408       .  A
C1098      H1109   1.082       .  S
C1099      C1100   1.392       .  A
C1099      H1110   1.084       .  S
C1100      C1101   1.400       .  A
C1100      H1111   1.084       .  S
C1101      C1102   1.421       .  A
C1101      C1106   1.406       .  A
C1102      C1103   1.415       .  A
C1103      C1104   1.397       .  A
C1103      H1112   1.077       .  S
C1104      C1105   1.396       .  A
C1104      H2381   1.077   1_455  S
C1105      C1106   1.404       .  A
C1106      H1114   1.084       .  S
H1113      C2372   1.077       .  S
C1115      C1116   1.396       .  A
C1115      C1120   1.399       .  A
C1116      C1117   1.399       .  A
C1116      H1129   1.084       .  S
C1117      C1118   1.418       .  A
C1117      H1130   1.077       .  S
C1118      C1124   1.431       .  A
C1118      C1119   1.422       .  A
C1119      C1121   1.399       .  A
C1119      C1120   1.402       .  A
C1120      H1131   1.085       .  S
C1121      C1122   1.389       .  A
C1121      H1132   1.084       .  S
C1122      C1123   1.398       .  A
C1122      H1133   1.084       .  S
C1123      C1124   1.425       .  A
C1123      C1128   1.406       .  A
C1124      C1125   1.414       .  A
C1125      C1126   1.396       .  A
C1125      H1134   1.078       .  S
C1126      C1127   1.399       .  A
C1126      H1135   1.083   1_455  S
C1127      C1128   1.396       .  A
C1128      H1136   1.085       .  S
C1137      C1138   1.400       .  A
C1137      C1142   1.397       .  A
C1138      C1139   1.394       .  A
C1138      H1151   1.084       .  S
C1139      C1140   1.414       .  A
C1139      H1152   1.077       .  S
C1140      C1146   1.428       .  A
C1140      C1141   1.424       .  A
C1141      C1143   1.398       .  A
C1141      C1142   1.403       .  A
C1142      H1153   1.085       .  S
C1143      C1144   1.387       .  A
C1143      H1154   1.084       .  S
C1144      C1145   1.399       .  A
C1144      H1155   1.084       .  S
C1145      C1146   1.422       .  A
C1145      C1150   1.400       .  A
C1146      C1147   1.417       .  A
C1147      C1148   1.397       .  A
C1147      H1156   1.077       .  S
C1148      C1149   1.398       .  A
C1148      H1157   1.082       .  S
C1149      C1150   1.398       .  A
C1150      H1158   1.084       .  S
C1159      C1160   1.397       .  A
C1159      C1164   1.399       .  A
C1160      C1161   1.394       .  A
C1160      H1173   1.083       .  S
C1161      C1162   1.417       .  A
C1161      H1174   1.077       .  S
C1162      C1168   1.425       .  A
C1162      C1163   1.420       .  A
C1163      C1165   1.400       .  A
C1163      C1164   1.397       .  A
C1164      H1175   1.080       .  S
C1165      C1166   1.388       .  A
C1165      H1176   1.083       .  S
C1166      C1167   1.398       .  A
C1166      H1177   1.085       .  S
C1167      C1168   1.424       .  A
C1167      C1172   1.403       .  A
C1168      C1169   1.412       .  A
C1169      C1170   1.391       .  A
C1169      H1178   1.079       .  S
C1170      C1171   1.399       .  A
C1170      H1179   1.083       .  S
C1171      C1172   1.397       .  A
C1172      H1180   1.087       .  S
C1181      C1182   1.393       .  A
C1181      C1186   1.395       .  A
C1182      C1183   1.394       .  A
C1182      H1195   1.084       .  S
C1183      C1184   1.416       .  A
C1183      H1196   1.078       .  S
C1184      C1190   1.425       .  A
C1184      C1185   1.422       .  A
C1185      C1187   1.399       .  A
C1185      C1186   1.399       .  A
C1186      H1197   1.085       .  S
C1187      C1188   1.388       .  A
C1187      H1198   1.084       .  S
C1188      C1189   1.398       .  A
C1188      H1199   1.084       .  S
C1189      C1190   1.424       .  A
C1189      C1194   1.402       .  A
C1190      C1191   1.414       .  A
C1191      C1192   1.392       .  A
C1191      H1200   1.078       .  S
C1192      C1193   1.395       .  A
C1192      H1201   1.084       .  S
C1193      C1194   1.395       .  A
C1194      H1202   1.085       .  S
C1203      C1204   1.398       .  A
C1203      C1208   1.396       .  A
C1204      C1205   1.395       .  A
C1204      H1217   1.083       .  S
C1205      C1206   1.415       .  A
C1205      H1218   1.080       .  S
C1206      C1212   1.430       .  A
C1206      C1207   1.424       .  A
C1207      C1209   1.399       .  A
C1207      C1208   1.405       .  A
C1208      H1219   1.084       .  S
C1209      C1210   1.390       .  A
C1209      H1220   1.085       .  S
C1210      C1211   1.399       .  A
C1210      H1221   1.084       .  S
C1211      C1212   1.423       .  A
C1211      C1216   1.405       .  A
C1212      C1213   1.415       .  A
C1213      C1214   1.396       .  A
C1213      H1222   1.081       .  S
C1214      C1215   1.396       .  A
C1214      H2491   1.076   1_455  S
C1215      C1216   1.400       .  A
C1216      H1224   1.086       .  S
H1223      C2482   1.076       .  S
C1225      C1226   1.397       .  A
C1225      C1230   1.404       .  A
C1226      C1227   1.398       .  A
C1227      C1228   1.416       .  A
C1227      H1240   1.077       .  S
C1228      C1234   1.429       .  A
C1228      C1229   1.420       .  A
C1229      C1231   1.400       .  A
C1229      C1230   1.403       .  A
C1230      H1241   1.084       .  S
C1231      C1232   1.391       .  A
C1231      H1242   1.084       .  S
C1232      C1233   1.399       .  A
C1232      H1243   1.084       .  S
C1233      C1234   1.423       .  A
C1233      C1238   1.406       .  A
C1234      C1235   1.414       .  A
C1235      C1236   1.395       .  A
C1235      H1244   1.077       .  S
C1236      C1237   1.400       .  A
C1236      H1245   1.083       .  S
C1237      C1238   1.398       .  A
C1238      H1246   1.082       .  S
C1247      C1248   1.400       .  A
C1247      C1252   1.398       .  A
C1248      C1249   1.394       .  A
C1248      H1261   1.081       .  S
C1249      C1250   1.413       .  A
C1249      H1262   1.078       .  S
C1250      C1256   1.430       .  A
C1250      C1251   1.425       .  A
C1251      C1253   1.399       .  A
C1251      C1252   1.408       .  A
C1252      H1263   1.085       .  S
C1253      C1254   1.390       .  A
C1253      H1264   1.084       .  S
C1254      C1255   1.400       .  A
C1254      H2533   1.084       .  S
C1255      C1256   1.421       .  A
C1255      C1260   1.403       .  A
C1256      C1257   1.418       .  A
C1257      C1258   1.399       .  A
C1257      H1266   1.078       .  S
C1258      C1259   1.396       .  A
C1259      C1260   1.403       .  A
C1260      H2536   1.085       .  S
H1265      C2522   1.084       .  S
H1268      C2528   1.085       .  S
C1269      H1270   1.110       .  S
C1269      C1275   1.526       .  S
C1269      C1274   1.520       .  S
C1269      C1273   1.521       .  S
C1271      H1272   1.111       .  S
C1271      C1277   1.551       .  S
C1271      C1276   1.551       .  S
C1271      C1278   1.550       .  S
C1273      C1276   1.376       .  D
C1273      C1793   1.490       .  S
C1274      C1277   1.374       .  D
C1274      C1815   1.468       .  S
C1275      C1278   1.376       .  D
C1275      C1783   1.487       .  S
C1276      C1871   1.478       .  S
C1277      C1881   1.493       .  S
C1278      C1837   1.488       .  S
C1279      H1280   1.111       .  S
C1279      C1285   1.546       .  S
C1279      C1284   1.547       .  S
C1279      C1283   1.547       .  S
C1281      H1282   1.113       .  S
C1281      C1287   1.520       .  S
C1281      C1286   1.517       .  S
C1281      C1288   1.521       .  S
C1283      C1286   1.369       .  D
C1283      C1749   1.474       .  S
C1284      C1287   1.371       .  D
C1284      C1705   1.486       .  S
C1285      C1288   1.374       .  D
C1285      C1727   1.483       .  S
C1286      C1651   1.471       .  S
C1287      C1661   1.467       .  S
C1288      C1695   1.473       .  S
C1289      H1290   1.111       .  S
C1289      C1929   1.539       .  S
C1289      C1294   1.532   1_565  S
C1291      H1926   1.111       .  S
C1291      C1297   1.542   1_565  S
C1291      C1932   1.541       .  S
H1292      C1925   1.111       .  S
C1293      C1296   1.377       .  D
C1293      C1717   1.490       .  S
C1294      C1297   1.372       .  D
C1294      C1761   1.476       .  S
C1295      C1923   1.541       .  S
C1295      C1298   1.380       .  D
C1295      C1739   1.487       .  S
C1296      C1859   1.484       .  S
C1297      C1849   1.491       .  S
C1298      C1925   1.542       .  S
C1298      C1893   1.497       .  S
C1299      H1300   1.111       .  S
C1299      C1305   1.548       .  S
C1299      C1304   1.553       .  S
C1299      C1303   1.549       .  S
C1301      H1302   1.113       .  S
C1301      C1307   1.520       .  S
C1301      C1306   1.522       .  S
C1301      C1308   1.525       .  S
C1303      C1306   1.370       .  D
C1303      C1585   1.490       .  S
C1304      C1307   1.373       .  D
C1304      C1629   1.487       .  S
C1305      C1308   1.373       .  D
C1305      C1595   1.485       .  S
C1306      C1529   1.467       .  S
C1307      C1507   1.474       .  S
C1308      C1563   1.474       .  S
C1309      H1310   1.112       .  S
C1309      C1315   1.518       .  S
C1309      C1314   1.521       .  S
C1309      C1313   1.520       .  S
C1311      H1312   1.111       .  S
C1311      C1317   1.549       .  S
C1311      C1316   1.549       .  S
C1311      C1318   1.551       .  S
C1313      C1316   1.374       .  D
C1313      C1387   1.476       .  S
C1314      C1317   1.374       .  D
C1314      C1419   1.475       .  S
C1315      C1318   1.374       .  D
C1315      C1409   1.477       .  S
C1316      C1497   1.485       .  S
C1317      C1463   1.488       .  S
C1318      C1441   1.483       .  S
C1319      H1320   1.111       .  S
C1319      C1957   1.538       .  S
C1321      H1322   1.111       .  S
C1321      C1960   1.540       .  S
C1323      C1953   1.538   1_545  S
C1323      C1326   1.375       .  D
C1323      C1617   1.487       .  S
C1324      C1327   1.376       .  D
C1324      C1573   1.493       .  S
C1325      C1328   1.376       .  D
C1325      C1607   1.485       .  S
C1326      C1955   1.542   1_545  S
C1326      C1485   1.486       .  S
C1327      C1453   1.482       .  S
C1328      C1475   1.489       .  S
O1329      C1345   1.273       .  A
C1330      O1346   1.274       .  A
C1330      O1343   1.274       .  A
C1330      C1673   1.473       .  S
O1331      C1344   1.269       .  A
O1332      C1350   1.275   1_556  A
O1332     Cd1341   2.082       .  S
O1333      C1347   1.273       .  A
O1333     Cd1971   2.046       .  S
O1334      C1345   1.274       .  A
O1334     Cd1337   2.063       .  S
Zn1335     O1980   2.014   1_545  S
Zn1335     O1348   2.036       .  S
O1336      C1347   1.276       .  A
Cd1337     O1967   2.052   1_545  S
Cd1337     O1339   2.074       .  S
Cd1337     O1340   1.993       .  S
Cd1338     O1342   2.037       .  S
Cd1338     O1340   1.967   1_554  S
O1339      C1349   1.275   1_556  A
Cd1341     O1343   2.057       .  S
O1342      C1349   1.270       .  A
C1344      O1348   1.276   1_554  A
C1344      C1431   1.470       .  S
C1345      C1639   1.478       .  S
O1346     Zn1969   2.005       .  S
C1347      C1683   1.473       .  S
C1349      C1375   1.468       .  S
C1350      O1351   1.269       .  A
C1350      C1397   1.469       .  S
O1352      C1368   1.274       .  A
C1353      O1369   1.273       .  A
C1353      O1366   1.275       .  A
C1353      C1519   1.479       .  S
O1354      C1367   1.268       .  A
O1354     Cd1361   2.035       .  S
O1355      C1373   1.278       .  A
O1355     Cd1364   2.085       .  S
O1356      C1370   1.274       .  A
O1356     Cd1994   2.056   1_545  S
O1357      C1368   1.276       .  A
O1357     Cd1360   2.074       .  S
Zn1358     O2003   2.000       .  S
Zn1358     O1371   2.032       .  S
Zn1358     O1363   1.940       .  S
O1359      C1370   1.275       .  A
Cd1360     O1990   2.066       .  S
Cd1360     O1362   2.082       .  S
Cd1361     O2008   2.044       .  S
Cd1361     O1363   1.976       .  S
O1362      C1372   1.276       .  A
O1363     Cd1998   2.000       .  S
Cd1364     O1366   2.070       .  S
Cd1364     O1997   2.000   1_545  S
O1365      C1372   1.272       .  A
C1367      O1371   1.273       .  A
C1367      C1827   1.459       .  S
C1368      C1541   1.478       .  S
O1369     Zn1992   1.997   1_545  S
C1370      C1551   1.472       .  S
C1372      C1805   1.475       .  S
C1373      O1374   1.272       .  A
C1373      C1771   1.477       .  S
O1374     Cd1995   2.049   1_545  S
C1375      C1376   1.397       .  A
C1375      C1380   1.400       .  A
C1376      C1377   1.395       .  A
C1376      H1389   1.084       .  S
C1377      C1378   1.416       .  A
C1377      H1390   1.077       .  S
C1378      C1384   1.424       .  A
C1378      C1379   1.420       .  A
C1379      C1381   1.399       .  A
C1379      C1380   1.399       .  A
C1380      H1391   1.085       .  S
C1381      C1382   1.389       .  A
C1381      H1392   1.084       .  S
C1382      C1383   1.398       .  A
C1382      H1393   1.083       .  S
C1383      C1384   1.423       .  A
C1383      C1388   1.402       .  A
C1384      C1385   1.412       .  A
C1385      C1386   1.391       .  A
C1385      H1394   1.077       .  S
C1386      C1387   1.398       .  A
C1386      H1395   1.084       .  S
C1387      C1388   1.398       .  A
C1388      H1396   1.083       .  S
C1397      C1398   1.398       .  A
C1397      C1402   1.399       .  A
C1398      C1399   1.398       .  A
C1398      H1411   1.083       .  S
C1399      C1400   1.418       .  A
C1399      H1412   1.077       .  S
C1400      C1406   1.425       .  A
C1400      C1401   1.420       .  A
C1401      C1403   1.399       .  A
C1401      C1402   1.396       .  A
C1402      H1413   1.085       .  S
C1403      C1404   1.387       .  A
C1403      H1414   1.084       .  S
C1404      C1405   1.397       .  A
C1404      H1415   1.083       .  S
C1405      C1406   1.424       .  A
C1405      C1410   1.401       .  A
C1406      C1407   1.412       .  A
C1407      C1408   1.392       .  A
C1407      H1416   1.076       .  S
C1408      C1409   1.399       .  A
C1408      H1417   1.084       .  S
C1409      C1410   1.396       .  A
C1410      H1418   1.083       .  S
C1419      C1420   1.398       .  A
C1419      C1424   1.397       .  A
C1420      C1421   1.391       .  A
C1420      H1433   1.084       .  S
C1421      C1422   1.412       .  A
C1421      H1434   1.077       .  S
C1422      C1428   1.425       .  A
C1422      C1423   1.424       .  A
C1423      C1425   1.398       .  A
C1423      C1424   1.404       .  A
C1424      H1435   1.084       .  S
C1425      C1426   1.389       .  A
C1425      H1436   1.084       .  S
C1426      C1427   1.400       .  A
C1426      H2071   1.084       .  S
C1427      C1428   1.420       .  A
C1427      C1432   1.400       .  A
C1428      C1429   1.417       .  A
C1429      C1430   1.396       .  A
C1429      H1438   1.077       .  S
C1430      C1431   1.397       .  A
C1430      H1439   1.083       .  S
C1431      C1432   1.401       .  A
C1432      H1440   1.085       .  S
H1437      C2060   1.084       .  S
C1441      C1442   1.396       .  A
C1441      C1446   1.403       .  A
C1442      C1443   1.396       .  A
C1442      H1455   1.084       .  S
C1443      C1444   1.416       .  A
C1443      H1456   1.077       .  S
C1444      C1450   1.429       .  A
C1444      C1445   1.421       .  A
C1445      C1447   1.401       .  A
C1445      C1446   1.406       .  A
C1446      H1457   1.084       .  S
C1447      C1448   1.392       .  A
C1447      H1458   1.084       .  S
C1448      C1449   1.400       .  A
C1448      H1459   1.084       .  S
C1449      C1450   1.424       .  A
C1449      C1454   1.408       .  A
C1450      C1451   1.413       .  A
C1451      C1452   1.393       .  A
C1451      H1460   1.077       .  S
C1452      C1453   1.398       .  A
C1453      C1454   1.399       .  A
C1454      H1462   1.085       .  S
C1463      C1464   1.398       .  A
C1463      C1468   1.402       .  A
C1464      C1465   1.401       .  A
C1464      H1477   1.083       .  S
C1465      C1466   1.418       .  A
C1465      H1478   1.078       .  S
C1466      C1472   1.434       .  A
C1466      C1467   1.422       .  A
C1467      C1469   1.400       .  A
C1467      C1468   1.406       .  A
C1468      H1479   1.084       .  S
C1469      C1470   1.391       .  A
C1469      H1480   1.084       .  S
C1470      C1471   1.399       .  A
C1471      C1472   1.425       .  A
C1471      C1476   1.409       .  A
C1472      C1473   1.414       .  A
C1473      C1474   1.397       .  A
C1473      H1482   1.077       .  S
C1474      C1475   1.402       .  A
C1474      H2117   1.084   1_545  S
C1475      C1476   1.398       .  A
H1483      C2108   1.083       .  S
C1485      C1486   1.396       .  A
C1485      C1490   1.402       .  A
C1486      C1487   1.400       .  A
C1486      H1499   1.084   1_545  S
C1487      C1488   1.418       .  A
C1487      H1500   1.077       .  S
C1488      C1494   1.433       .  A
C1488      C1489   1.422       .  A
C1489      C1491   1.400       .  A
C1489      C1490   1.405       .  A
C1490      H1501   1.085       .  S
C1491      C1492   1.391       .  A
C1491      H1502   1.084       .  S
C1492      C1493   1.400       .  A
C1492      H1503   1.084       .  S
C1493      C1494   1.425       .  A
C1493      C1498   1.409       .  A
C1494      C1495   1.414       .  A
C1495      C1496   1.396       .  A
C1495      H1504   1.077       .  S
C1496      C1497   1.399       .  A
C1496      H1505   1.083       .  S
C1497      C1498   1.399       .  A
C1498      H1506   1.085       .  S
C1507      C1508   1.397       .  A
C1507      C1512   1.395       .  A
C1508      C1509   1.395       .  A
C1508      H1521   1.083       .  S
C1509      C1510   1.414       .  A
C1509      H1522   1.077       .  S
C1510      C1516   1.428       .  A
C1510      C1511   1.425       .  A
C1511      C1513   1.398       .  A
C1511      C1512   1.404       .  A
C1512      H1523   1.085       .  S
C1513      C1514   1.388       .  A
C1513      H1524   1.084       .  S
C1514      C1515   1.399       .  A
C1514      H1525   1.084   1_545  S
C1515      C1516   1.421       .  A
C1515      C1520   1.400       .  A
C1516      C1517   1.416       .  A
C1517      C1518   1.398       .  A
C1517      H1526   1.077       .  S
C1518      C1519   1.401       .  A
C1518      H1527   1.083       .  S
C1519      C1520   1.402       .  A
C1520      H1528   1.084       .  S
C1529      C1530   1.394       .  A
C1529      C1534   1.395       .  A
C1530      C1531   1.394       .  A
C1530      H1543   1.084       .  S
C1531      C1532   1.415       .  A
C1531      H1544   1.077       .  S
C1532      C1538   1.426       .  A
C1532      C1533   1.423       .  A
C1533      C1535   1.398       .  A
C1533      C1534   1.401       .  A
C1534      H1545   1.085       .  S
C1535      C1536   1.389       .  A
C1535      H1546   1.084       .  S
C1536      C1537   1.400       .  A
C1537      C1538   1.421       .  A
C1537      C1542   1.401       .  A
C1538      C1539   1.415       .  A
C1539      C1540   1.396       .  A
C1539      H1548   1.077       .  S
C1540      C1541   1.400       .  A
C1540      H1549   1.083       .  S
C1541      C1542   1.402       .  A
C1551      C1552   1.398       .  A
C1551      C1556   1.400       .  A
C1552      C1553   1.394       .  A
C1552      H2199   1.083       .  S
C1553      C1554   1.415       .  A
C1553      H1566   1.077       .  S
C1554      C1560   1.427       .  A
C1554      C1555   1.422       .  A
C1555      C1557   1.400       .  A
C1555      C1556   1.404       .  A
C1556      H1567   1.085       .  S
C1557      C1558   1.390       .  A
C1558      C1559   1.399       .  A
C1558      H1569   1.084       .  S
C1559      C1560   1.424       .  A
C1559      C1564   1.405       .  A
C1560      C1561   1.414       .  A
C1561      C1562   1.392       .  A
C1561      H1570   1.077       .  S
C1562      C1563   1.395       .  A
C1562      H1571   1.084       .  S
C1563      C1564   1.398       .  A
C1564      H1572   1.085       .  S
H1565      C2186   1.083       .  S
C1573      C1574   1.399       .  A
C1573      C1578   1.402       .  A
C1574      C1575   1.404       .  A
C1574      H1587   1.084   1_655  S
C1575      C1576   1.420       .  A
C1575      H1588   1.075       .  S
C1576      C1582   1.437       .  A
C1576      C1577   1.422       .  A
C1577      C1579   1.400       .  A
C1577      C1578   1.407       .  A
C1578      H1589   1.083       .  S
C1579      C1580   1.391       .  A
C1579      H1590   1.083       .  S
C1580      C1581   1.399       .  A
C1580      H1591   1.083       .  S
C1581      C1582   1.426       .  A
C1581      C1586   1.412       .  A
C1582      C1583   1.415       .  A
C1583      C1584   1.400       .  A
C1583      H1592   1.075       .  S
C1584      C1585   1.401       .  A
C1584      H1593   1.084       .  S
C1585      C1586   1.399       .  A
C1586      H1594   1.084       .  S
C1595      C1596   1.397       .  A
C1595      C1600   1.403       .  A
C1596      C1597   1.398       .  A
C1596      H1609   1.083       .  S
C1597      C1598   1.417       .  A
C1597      H1610   1.077       .  S
C1598      C1604   1.431       .  A
C1598      C1599   1.421       .  A
C1599      C1601   1.401       .  A
C1599      C1600   1.407       .  A
C1600      H1611   1.084       .  S
C1601      C1602   1.392       .  A
C1601      H1612   1.083       .  S
C1602      C1603   1.400       .  A
C1602      H1613   1.084   1_545  S
C1603      C1604   1.424       .  A
C1603      C1608   1.410       .  A
C1604      C1605   1.414       .  A
C1605      C1606   1.394       .  A
C1605      H1614   1.077       .  S
C1606      C1607   1.399       .  A
C1606      H1615   1.084   1_655  S
C1607      C1608   1.399       .  A
C1608      H2250   1.084   1_545  S
H1616      C2242   1.084       .  S
C1617      C1618   1.400       .  A
C1617      C1622   1.398       .  A
C1618      C1619   1.398       .  A
C1618      H1631   1.083   1_545  S
C1619      C1620   1.415       .  A
C1619      H1632   1.078       .  S
C1620      C1626   1.434       .  A
C1620      C1621   1.425       .  A
C1621      C1623   1.399       .  A
C1621      C1622   1.409       .  A
C1622      H1633   1.085       .  S
C1623      C1624   1.391       .  A
C1623      H1634   1.084       .  S
C1624      C1625   1.400       .  A
C1624      H1635   1.084       .  S
C1625      C1626   1.422       .  A
C1625      C1630   1.406       .  A
C1626      C1627   1.418       .  A
C1627      C1628   1.400       .  A
C1627      H1636   1.078       .  S
C1628      C1629   1.398       .  A
C1628      H1637   1.084       .  S
C1629      C1630   1.401       .  A
C1630      H1638   1.085       .  S
C1639      C1640   1.401       .  A
C1639      C1644   1.402       .  A
C1640      C1641   1.392       .  A
C1640      H1653   1.083       .  S
C1641      C1642   1.412       .  A
C1641      H1654   1.077       .  S
C1642      C1648   1.425       .  A
C1642      C1643   1.422       .  A
C1643      C1645   1.399       .  A
C1643      C1644   1.404       .  A
C1644      H1655   1.085       .  S
C1645      C1646   1.390       .  A
C1645      H1656   1.084       .  S
C1646      C1647   1.399       .  A
C1646      H1657   1.084       .  S
C1647      C1648   1.422       .  A
C1647      C1652   1.401       .  A
C1648      C1649   1.416       .  A
C1649      C1650   1.394       .  A
C1649      H1658   1.077       .  S
C1650      C1651   1.394       .  A
C1650      H1659   1.083       .  S
C1651      C1652   1.396       .  A
C1652      H1660   1.083       .  S
C1661      C1662   1.394       .  A
C1661      C1666   1.393       .  A
C1662      C1663   1.395       .  A
C1662      H1675   1.083       .  S
C1663      C1664   1.417       .  A
C1663      H1676   1.079       .  S
C1664      C1670   1.425       .  A
C1664      C1665   1.422       .  A
C1665      C1667   1.398       .  A
C1665      C1666   1.396       .  A
C1666      H1677   1.082       .  S
C1667      C1668   1.386       .  A
C1667      H1678   1.084       .  S
C1668      C1669   1.398       .  A
C1668      H1679   1.084       .  S
C1669      C1670   1.423       .  A
C1669      C1674   1.400       .  A
C1670      C1671   1.413       .  A
C1671      C1672   1.393       .  A
C1671      H1680   1.079       .  S
C1672      C1673   1.400       .  A
C1672      H1681   1.083       .  S
C1673      C1674   1.399       .  A
C1674      H1682   1.085       .  S
C1683      C1684   1.401       .  A
C1683      C1688   1.399       .  A
C1684      C1685   1.392       .  A
C1684      H1697   1.083       .  S
C1685      C1686   1.412       .  A
C1685      H1698   1.078       .  S
C1686      C1692   1.425       .  A
C1686      C1687   1.424       .  A
C1687      C1689   1.399       .  A
C1687      C1688   1.403       .  A
C1688      H1699   1.085       .  S
C1689      C1690   1.389       .  A
C1689      H1700   1.084       .  S
C1690      C1691   1.399       .  A
C1690      H1701   1.084       .  S
C1691      C1692   1.421       .  A
C1691      C1696   1.399       .  A
C1692      C1693   1.417       .  A
C1693      C1694   1.395       .  A
C1693      H1702   1.077       .  S
C1694      C1695   1.396       .  A
C1694      H1703   1.084       .  S
C1695      C1696   1.396       .  A
C1696      H1704   1.082       .  S
C1705      C1706   1.400       .  A
C1705      C1710   1.399       .  A
C1706      C1707   1.395       .  A
C1706      H1719   1.083       .  S
C1707      C1708   1.414       .  A
C1707      H1720   1.079       .  S
C1708      C1714   1.432       .  A
C1708      C1709   1.425       .  A
C1709      C1711   1.400       .  A
C1709      C1710   1.410       .  A
C1710      H1721   1.083       .  S
C1711      C1712   1.392       .  A
C1711      H1722   1.084       .  S
C1712      C1713   1.400       .  A
C1712      H1723   1.084       .  S
C1713      C1714   1.422       .  A
C1713      C1718   1.407       .  A
C1714      C1715   1.416       .  A
C1715      C1716   1.397       .  A
C1715      H1724   1.078       .  S
C1716      C1717   1.395       .  A
C1716      H1725   1.082       .  S
C1717      C1718   1.404       .  A
C1718      H1726   1.085       .  S
C1727      C1728   1.400       .  A
C1727      C1732   1.398       .  A
C1728      C1729   1.393       .  A
C1728      H1741   1.083       .  S
C1729      C1730   1.413       .  A
C1729      H1742   1.078       .  S
C1730      C1736   1.429       .  A
C1730      C1731   1.424       .  A
C1731      C1733   1.399       .  A
C1731      C1732   1.407       .  A
C1732      H1743   1.083       .  S
C1733      C1734   1.391       .  A
C1733      H1744   1.084       .  S
C1734      C1735   1.400       .  A
C1734      H1745   1.084       .  S
C1735      C1736   1.421       .  A
C1735      C1740   1.404       .  A
C1736      C1737   1.416       .  A
C1737      C1738   1.395       .  A
C1737      H1746   1.077       .  S
C1738      C1739   1.395       .  A
C1739      C1740   1.403       .  A
C1740      H1748   1.085       .  S
C1749      C1750   1.395       .  A
C1749      C1754   1.397       .  A
C1750      C1751   1.399       .  A
C1750      H1763   1.084       .  S
C1751      C1752   1.418       .  A
C1751      H1764   1.078       .  S
C1752      C1758   1.429       .  A
C1752      C1753   1.422       .  A
C1753      C1755   1.398       .  A
C1753      C1754   1.400       .  A
C1754      H1765   1.085       .  S
C1755      C1756   1.388       .  A
C1755      H1766   1.084       .  S
C1756      C1757   1.398       .  A
C1756      H1767   1.084       .  S
C1757      C1758   1.425       .  A
C1757      C1762   1.404       .  A
C1758      C1759   1.414       .  A
C1759      C1760   1.395       .  A
C1759      H1768   1.078       .  S
C1760      C1761   1.398       .  A
C1760      H1769   1.083       .  S
C1761      C1762   1.394       .  A
C1762      H1770   1.085       .  S
C1771      C1772   1.402       .  A
C1771      C1776   1.399       .  A
C1772      C1773   1.396       .  A
C1772      H1785   1.084       .  S
C1773      C1774   1.413       .  A
C1773      H1786   1.077       .  S
C1774      C1780   1.428       .  A
C1774      C1775   1.424       .  A
C1775      C1777   1.398       .  A
C1775      C1776   1.403       .  A
C1776      H1787   1.084       .  S
C1777      C1778   1.387       .  A
C1777      H1788   1.084       .  S
C1778      C1779   1.399       .  A
C1778      H1789   1.084       .  S
C1779      C1780   1.420       .  A
C1779      C1784   1.398       .  A
C1780      C1781   1.417       .  A
C1781      C1782   1.399       .  A
C1781      H1790   1.077       .  S
C1782      C1783   1.401       .  A
C1782      H1791   1.082       .  S
C1783      C1784   1.400       .  A
C1784      H1792   1.083       .  S
C1793      C1794   1.400       .  A
C1793      C1798   1.401       .  A
C1794      C1795   1.398       .  A
C1794      H1807   1.083       .  S
C1795      C1796   1.417       .  A
C1795      H1808   1.076       .  S
C1796      C1802   1.429       .  A
C1796      C1797   1.420       .  A
C1797      C1799   1.400       .  A
C1797      C1798   1.400       .  A
C1798      H1809   1.080       .  S
C1799      C1800   1.388       .  A
C1799      H1810   1.084       .  S
C1800      C1801   1.398       .  A
C1800      H1811   1.084       .  S
C1801      C1802   1.425       .  A
C1801      C1806   1.405       .  A
C1802      C1803   1.413       .  A
C1803      C1804   1.394       .  A
C1803      H1812   1.077       .  S
C1804      C1805   1.400       .  A
C1804      H1813   1.084       .  S
C1805      C1806   1.399       .  A
C1806      H1814   1.085       .  S
C1815      C1816   1.393       .  A
C1815      C1820   1.397       .  A
C1816      C1817   1.394       .  A
C1816      H1829   1.083       .  S
C1817      C1818   1.416       .  A
C1817      H1830   1.078       .  S
C1818      C1824   1.425       .  A
C1818      C1819   1.422       .  A
C1819      C1821   1.399       .  A
C1819      C1820   1.400       .  A
C1820      H1831   1.085       .  S
C1821      C1822   1.390       .  A
C1821      H1832   1.084       .  S
C1822      C1823   1.399       .  A
C1822      H1833   1.084       .  S
C1823      C1824   1.423       .  A
C1823      C1828   1.403       .  A
C1824      C1825   1.414       .  A
C1825      C1826   1.393       .  A
C1825      H1834   1.078       .  S
C1826      C1827   1.395       .  A
C1826      H1835   1.084       .  S
C1827      C1828   1.397       .  A
C1828      H1836   1.085       .  S
C1837      C1838   1.400       .  A
C1837      C1842   1.400       .  A
C1838      C1839   1.396       .  A
C1838      H1851   1.083       .  S
C1839      C1840   1.414       .  A
C1839      H1852   1.079       .  S
C1840      C1846   1.433       .  A
C1840      C1841   1.425       .  A
C1841      C1843   1.400       .  A
C1841      C1842   1.410       .  A
C1842      H1853   1.083       .  S
C1843      C1844   1.392       .  A
C1843      H1854   1.084       .  S
C1844      C1845   1.400       .  A
C1844      H1855   1.084       .  S
C1845      C1846   1.422       .  A
C1845      C1850   1.406       .  A
C1846      C1847   1.417       .  A
C1847      C1848   1.399       .  A
C1847      H1856   1.079       .  S
C1848      C1849   1.396       .  A
C1849      C1850   1.403       .  A
C1850      H1858   1.085       .  S
C1859      C1860   1.397       .  A
C1859      C1864   1.400       .  A
C1860      C1861   1.397       .  A
C1860      H2507   1.076       .  S
C1861      C1862   1.415       .  A
C1861      H1874   1.078       .  S
C1862      C1868   1.428       .  A
C1862      C1863   1.421       .  A
C1863      C1865   1.398       .  A
C1863      C1864   1.400       .  A
C1864      H1875   1.085       .  S
C1865      C1866   1.388       .  A
C1865      H1876   1.084       .  S
C1866      C1867   1.398       .  A
C1866      H1877   1.084       .  S
C1867      C1868   1.424       .  A
C1867      C1872   1.404       .  A
C1868      C1869   1.414       .  A
C1869      C1870   1.395       .  A
C1869      H1878   1.078       .  S
C1870      C1871   1.400       .  A
C1870      H1879   1.084       .  S
C1871      C1872   1.395       .  A
C1872      H1880   1.083       .  S
H1873      C2494   1.079   1_545  S
C1881      C1882   1.401       .  A
C1881      C1886   1.402       .  A
C1882      C1883   1.395       .  A
C1882      H1895   1.081       .  S
C1883      C1884   1.412       .  A
C1883      H1896   1.077       .  S
C1884      C1890   1.434       .  A
C1884      C1885   1.425       .  A
C1885      C1887   1.400       .  A
C1885      C1886   1.413       .  A
C1886      H1897   1.085       .  S
C1887      C1888   1.393       .  A
C1887      H1898   1.084       .  S
C1888      C1889   1.401       .  A
C1889      C1890   1.420       .  A
C1889      C1894   1.407       .  A
C1890      C1891   1.418       .  A
C1891      C1892   1.401       .  A
C1891      H1900   1.077       .  S
C1892      C1893   1.398       .  A
C1892      H2535   1.083       .  S
C1893      C1894   1.407       .  A
H1901      C2526   1.083   1_545  S
C1903      H1904   1.112       .  S
C1903      C1909   1.523       .  S
C1903      C1908   1.517       .  S
C1903      C1907   1.523       .  S
C1905      H1906   1.111       .  S
C1905      C1911   1.548       .  S
C1905      C1910   1.547       .  S
C1905      C1912   1.545       .  S
C1907      C1910   1.377       .  D
C1907      C2427   1.480       .  S
C1908      C1911   1.371       .  D
C1908      C2449   1.466       .  S
C1909      C1912   1.372       .  D
C1909      C2417   1.481       .  S
C1910      C2505   1.485       .  S
C1911      C2515   1.483       .  S
C1912      C2471   1.477       .  S
C1913      H1914   1.111       .  S
C1913      C1919   1.546       .  S
C1913      C1918   1.546       .  S
C1913      C1917   1.546       .  S
C1915      H1916   1.112       .  S
C1915      C1921   1.524       .  S
C1915      C1920   1.520       .  S
C1915      C1922   1.523       .  S
C1917      C1920   1.369       .  D
C1917      C2383   1.478       .  S
C1918      C1921   1.374       .  D
C1918      C2339   1.483       .  S
C1919      C1922   1.375       .  D
C1919      C2361   1.487       .  S
C1920      C2285   1.471       .  S
C1921      C2295   1.476       .  S
C1922      C2329   1.476       .  S
C1923      H1924   1.111       .  S
C1923      C1928   1.534       .  S
C1925      C1931   1.540       .  S
C1927      C1930   1.378       .  D
C1927      C2351   1.486       .  S
C1928      C1931   1.370       .  D
C1928      C2395   1.481       .  S
C1929      C1932   1.379       .  D
C1929      C2373   1.492       .  S
C1930      C2493   1.492       .  S
C1931      C2483   1.482       .  S
C1932      C2527   1.487       .  S
C1933      H1934   1.111       .  S
C1933      C1939   1.548       .  S
C1933      C1938   1.550       .  S
C1933      C1937   1.546       .  S
C1935      H1936   1.113       .  S
C1935      C1941   1.518       .  S
C1935      C1940   1.518       .  S
C1935      C1942   1.524       .  S
C1937      C1940   1.370       .  D
C1937      C2219   1.483       .  S
C1938      C1941   1.373       .  D
C1938      C2263   1.486       .  S
C1939      C1942   1.374       .  D
C1939      C2229   1.484       .  S
C1940      C2163   1.468       .  S
C1941      C2141   1.469       .  S
C1942      C2197   1.475       .  S
C1943      H1944   1.112       .  S
C1943      C1949   1.521       .  S
C1943      C1948   1.523       .  S
C1943      C1947   1.521       .  S
C1945      H1946   1.111       .  S
C1945      C1951   1.551       .  S
C1945      C1950   1.551       .  S
C1945      C1952   1.551       .  S
C1947      C1950   1.376       .  D
C1947      C2021   1.482       .  S
C1948      C1951   1.375       .  D
C1948      C2053   1.473       .  S
C1949      C1952   1.373       .  D
C1949      C2043   1.475       .  S
C1950      C2131   1.483       .  S
C1951      C2097   1.494       .  S
C1952      C2075   1.488       .  S
C1953      H1954   1.111       .  S
C1955      H1956   1.111       .  S
C1957      C1960   1.377       .  D
C1957      C2251   1.487       .  S
C1958      C1961   1.377       .  D
C1958      C2207   1.487       .  S
C1959      C1962   1.378       .  D
C1959      C2241   1.484       .  S
C1960      C2119   1.486       .  S
C1961      C2087   1.489       .  S
C1962      C2109   1.495       .  S
O1963      C1979   1.274       .  A
C1964      O1980   1.274       .  A
C1964      O1977   1.275       .  A
C1964      C2307   1.473       .  S
O1965      C1978   1.269       .  A
O1966      C1984   1.275   1_556  A
O1966     Cd1975   2.080       .  S
O1967      C1981   1.274       .  A
O1968      C1979   1.274       .  A
O1968     Cd1971   2.067       .  S
Zn1969     O1982   2.030       .  S
O1970      C1981   1.276       .  A
Cd1971     O1973   2.079       .  S
Cd1971     O1974   1.994       .  S
Cd1972     O1976   2.039       .  S
Cd1972     O1974   1.966   1_554  S
O1973      C1983   1.275   1_556  A
Cd1975     O1977   2.057       .  S
O1976      C1983   1.271       .  A
C1978      O1982   1.275   1_554  A
C1978      C2065   1.465       .  S
C1979      C2273   1.480       .  S
C1981      C2317   1.475       .  S
C1983      C2009   1.471       .  S
C1984      O1985   1.270       .  A
C1984      C2031   1.469       .  S
O1986      C2002   1.273       .  A
C1987      O2003   1.273       .  A
C1987      O2000   1.274       .  A
C1987      C2153   1.476       .  S
O1988      C2001   1.268       .  A
O1988     Cd1995   2.033       .  S
O1989      C2007   1.276       .  A
O1989     Cd1998   2.079       .  S
O1990      C2004   1.274       .  A
O1991      C2002   1.275       .  A
O1991     Cd1994   2.074       .  S
Zn1992     O2005   2.022       .  S
Zn1992     O1997   1.935       .  S
O1993      C2004   1.275   1_455  A
Cd1994     O1996   2.076       .  S
Cd1995     O1997   1.974       .  S
O1996      C2006   1.275       .  A
Cd1998     O2000   2.066       .  S
O1999      C2006   1.271       .  A
C2001      O2005   1.272       .  A
C2001      C2461   1.455       .  S
C2002      C2175   1.477       .  S
C2004      C2185   1.474       .  S
C2006      C2439   1.468       .  S
C2007      O2008   1.271       .  A
C2007      C2405   1.470       .  S
C2009      C2010   1.398       .  A
C2009      C2014   1.400       .  A
C2010      C2011   1.397       .  A
C2010      H2023   1.083       .  S
C2011      C2012   1.417       .  A
C2011      H2024   1.077       .  S
C2012      C2018   1.427       .  A
C2012      C2013   1.421       .  A
C2013      C2015   1.399       .  A
C2013      C2014   1.399       .  A
C2014      H2025   1.085       .  S
C2015      C2016   1.388       .  A
C2015      H2026   1.084       .  S
C2016      C2017   1.398       .  A
C2016      H2027   1.084       .  S
C2017      C2018   1.423       .  A
C2017      C2022   1.402       .  A
C2018      C2019   1.413       .  A
C2019      C2020   1.394       .  A
C2019      H2028   1.077       .  S
C2020      C2021   1.400       .  A
C2020      H2029   1.084       .  S
C2021      C2022   1.398       .  A
C2022      H2030   1.084       .  S
C2031      C2032   1.397       .  A
C2031      C2036   1.400       .  A
C2032      C2033   1.397       .  A
C2032      H2045   1.083       .  S
C2033      C2034   1.417       .  A
C2033      H2046   1.078       .  S
C2034      C2040   1.425       .  A
C2034      C2035   1.420       .  A
C2035      C2037   1.399       .  A
C2035      C2036   1.398       .  A
C2036      H2047   1.085       .  S
C2037      C2038   1.388       .  A
C2037      H2048   1.085       .  S
C2038      C2039   1.398       .  A
C2038      H2049   1.083       .  S
C2039      C2040   1.424       .  A
C2039      C2044   1.402       .  A
C2040      C2041   1.412       .  A
C2041      C2042   1.392       .  A
C2041      H2050   1.077       .  S
C2042      C2043   1.398       .  A
C2042      H2051   1.084       .  S
C2043      C2044   1.397       .  A
C2044      H2052   1.084       .  S
C2053      C2054   1.397       .  A
C2053      C2058   1.397       .  A
C2054      C2055   1.391       .  A
C2054      H2067   1.084       .  S
C2055      C2056   1.412       .  A
C2055      H2068   1.078       .  S
C2056      C2062   1.424       .  A
C2056      C2057   1.424       .  A
C2057      C2059   1.398       .  A
C2057      C2058   1.401       .  A
C2058      H2069   1.084       .  S
C2059      C2060   1.388       .  A
C2059      H2070   1.083       .  S
C2060      C2061   1.399       .  A
C2061      C2062   1.421       .  A
C2061      C2066   1.398       .  A
C2062      C2063   1.416       .  A
C2063      C2064   1.395       .  A
C2063      H2072   1.079       .  S
C2064      C2065   1.396       .  A
C2064      H2073   1.083       .  S
C2065      C2066   1.399       .  A
C2066      H2074   1.085       .  S
C2075      C2076   1.397       .  A
C2075      C2080   1.404       .  A
C2076      C2077   1.399       .  A
C2076      H2089   1.083       .  S
C2077      C2078   1.417       .  A
C2077      H2090   1.078       .  S
C2078      C2084   1.433       .  A
C2078      C2079   1.422       .  A
C2079      C2081   1.401       .  A
C2079      C2080   1.408       .  A
C2080      H2091   1.085       .  S
C2081      C2082   1.393       .  A
C2081      H2092   1.085       .  S
C2082      C2083   1.400       .  A
C2082      H2093   1.084       .  S
C2083      C2084   1.425       .  A
C2083      C2088   1.411       .  A
C2084      C2085   1.414       .  A
C2085      C2086   1.396       .  A
C2085      H2094   1.078       .  S
C2086      C2087   1.400       .  A
C2087      C2088   1.400       .  A
C2088      H2096   1.085       .  S
C2097      C2098   1.399       .  A
C2097      C2102   1.405       .  A
C2098      C2099   1.401       .  A
C2098      H2111   1.083       .  S
C2099      C2100   1.418       .  A
C2099      H2112   1.078       .  S
C2100      C2106   1.436       .  A
C2100      C2101   1.422       .  A
C2101      C2103   1.401       .  A
C2101      C2102   1.409       .  A
C2102      H2113   1.084       .  S
C2103      C2104   1.393       .  A
C2103      H2114   1.084       .  S
C2104      C2105   1.400       .  A
C2105      C2106   1.425       .  A
C2105      C2110   1.413       .  A
C2106      C2107   1.414       .  A
C2107      C2108   1.398       .  A
C2107      H2116   1.078       .  S
C2108      C2109   1.402       .  A
C2109      C2110   1.401       .  A
C2119      C2120   1.397       .  A
C2119      C2124   1.401       .  A
C2120      C2121   1.400       .  A
C2120      H2133   1.083       .  S
C2121      C2122   1.418       .  A
C2121      H2134   1.078       .  S
C2122      C2128   1.432       .  A
C2122      C2123   1.422       .  A
C2123      C2125   1.399       .  A
C2123      C2124   1.404       .  A
C2124      H2135   1.085       .  S
C2125      C2126   1.390       .  A
C2125      H2136   1.084       .  S
C2126      C2127   1.399       .  A
C2126      H2137   1.084       .  S
C2127      C2128   1.424       .  A
C2127      C2132   1.406       .  A
C2128      C2129   1.415       .  A
C2129      C2130   1.397       .  A
C2129      H2138   1.078       .  S
C2130      C2131   1.400       .  A
C2130      H2139   1.083       .  S
C2131      C2132   1.397       .  A
C2132      H2140   1.085       .  S
C2141      C2142   1.396       .  A
C2141      C2146   1.393       .  A
C2142      C2143   1.393       .  A
C2142      H2155   1.083       .  S
C2143      C2144   1.414       .  A
C2143      H2156   1.077       .  S
C2144      C2150   1.426       .  A
C2144      C2145   1.424       .  A
C2145      C2147   1.397       .  A
C2145      C2146   1.401       .  A
C2146      H2157   1.085       .  S
C2147      C2148   1.387       .  A
C2147      H2158   1.084       .  S
C2148      C2149   1.399       .  A
C2148      H2159   1.084       .  S
C2149      C2150   1.421       .  A
C2149      C2154   1.399       .  A
C2150      C2151   1.416       .  A
C2151      C2152   1.396       .  A
C2151      H2160   1.077       .  S
C2152      C2153   1.400       .  A
C2152      H2161   1.083       .  S
C2153      C2154   1.401       .  A
C2154      H2162   1.085       .  S
C2163      C2164   1.395       .  A
C2163      C2168   1.394       .  A
C2164      C2165   1.394       .  A
C2164      H2177   1.084       .  S
C2165      C2166   1.415       .  A
C2165      H2178   1.077       .  S
C2166      C2172   1.426       .  A
C2166      C2167   1.424       .  A
C2167      C2169   1.398       .  A
C2167      C2168   1.401       .  A
C2168      H2179   1.085       .  S
C2169      C2170   1.388       .  A
C2169      H2180   1.084       .  S
C2170      C2171   1.399       .  A
C2171      C2172   1.421       .  A
C2171      C2176   1.400       .  A
C2172      C2173   1.415       .  A
C2173      C2174   1.396       .  A
C2173      H2182   1.078       .  S
C2174      C2175   1.400       .  A
C2174      H2183   1.083       .  S
C2175      C2176   1.401       .  A
C2185      C2186   1.398       .  A
C2185      C2190   1.400       .  A
C2186      C2187   1.395       .  A
C2187      C2188   1.415       .  A
C2187      H2200   1.078       .  S
C2188      C2194   1.428       .  A
C2188      C2189   1.422       .  A
C2189      C2191   1.400       .  A
C2189      C2190   1.404       .  A
C2190      H2201   1.086   1_655  S
C2191      C2192   1.389       .  A
C2192      C2193   1.398       .  A
C2192      H2203   1.084       .  S
C2193      C2194   1.424       .  A
C2193      C2198   1.404       .  A
C2194      C2195   1.414       .  A
C2195      C2196   1.392       .  A
C2195      H2204   1.078       .  S
C2196      C2197   1.396       .  A
C2196      H2205   1.084       .  S
C2197      C2198   1.397       .  A
C2198      H2206   1.085       .  S
C2207      C2208   1.396       .  A
C2207      C2212   1.403       .  A
C2208      C2209   1.399       .  A
C2208      H2221   1.084   1_655  S
C2209      C2210   1.418       .  A
C2209      H2222   1.076       .  S
C2210      C2216   1.431       .  A
C2210      C2211   1.421       .  A
C2211      C2213   1.400       .  A
C2211      C2212   1.403       .  A
C2212      H2223   1.084       .  S
C2213      C2214   1.391       .  A
C2213      H2224   1.084       .  S
C2214      C2215   1.399       .  A
C2214      H2225   1.084       .  S
C2215      C2216   1.425       .  A
C2215      C2220   1.408       .  A
C2216      C2217   1.413       .  A
C2217      C2218   1.394       .  A
C2217      H2226   1.077       .  S
C2218      C2219   1.400       .  A
C2218      H2227   1.083       .  S
C2219      C2220   1.398       .  A
C2220      H2228   1.085       .  S
C2229      C2230   1.397       .  A
C2229      C2234   1.402       .  A
C2230      C2231   1.397       .  A
C2230      H2243   1.084       .  S
C2231      C2232   1.416       .  A
C2231      H2244   1.077       .  S
C2232      C2238   1.430       .  A
C2232      C2233   1.422       .  A
C2233      C2235   1.400       .  A
C2233      C2234   1.406       .  A
C2234      H2245   1.084       .  S
C2235      C2236   1.392       .  A
C2235      H2246   1.083       .  S
C2236      C2237   1.399       .  A
C2236      H2247   1.083       .  S
C2237      C2238   1.424       .  A
C2237      C2242   1.409       .  A
C2238      C2239   1.414       .  A
C2239      C2240   1.394       .  A
C2239      H2248   1.077       .  S
C2240      C2241   1.400       .  A
C2240      H2249   1.084   1_655  S
C2241      C2242   1.398       .  A
C2251      C2252   1.399       .  A
C2251      C2256   1.399       .  A
C2252      C2253   1.396       .  A
C2252      H2265   1.084       .  S
C2253      C2254   1.414       .  A
C2253      H2266   1.077       .  S
C2254      C2260   1.432       .  A
C2254      C2255   1.425       .  A
C2255      C2257   1.400       .  A
C2255      C2256   1.409       .  A
C2256      H2267   1.084       .  S
C2257      C2258   1.392       .  A
C2257      H2268   1.084       .  S
C2258      C2259   1.400       .  A
C2258      H2269   1.084       .  S
C2259      C2260   1.422       .  A
C2259      C2264   1.406       .  A
C2260      C2261   1.417       .  A
C2261      C2262   1.399       .  A
C2261      H2270   1.078       .  S
C2262      C2263   1.396       .  A
C2262      H2271   1.084       .  S
C2263      C2264   1.403       .  A
C2264      H2272   1.085       .  S
C2273      C2274   1.401       .  A
C2273      C2278   1.403       .  A
C2274      C2275   1.393       .  A
C2274      H2287   1.083       .  S
C2275      C2276   1.413       .  A
C2275      H2288   1.077       .  S
C2276      C2282   1.427       .  A
C2276      C2277   1.422       .  A
C2277      C2279   1.400       .  A
C2277      C2278   1.405       .  A
C2278      H2289   1.085       .  S
C2279      C2280   1.390       .  A
C2279      H2290   1.085       .  S
C2280      C2281   1.399       .  A
C2280      H2291   1.084       .  S
C2281      C2282   1.422       .  A
C2281      C2286   1.403       .  A
C2282      C2283   1.416       .  A
C2283      C2284   1.394       .  A
C2283      H2292   1.076       .  S
C2284      C2285   1.393       .  A
C2284      H2293   1.084       .  S
C2285      C2286   1.397       .  A
C2286      H2294   1.084       .  S
C2295      C2296   1.398       .  A
C2295      C2300   1.394       .  A
C2296      C2297   1.398       .  A
C2296      H2309   1.083       .  S
C2297      C2298   1.417       .  A
C2297      H2310   1.078       .  S
C2298      C2304   1.426       .  A
C2298      C2299   1.421       .  A
C2299      C2301   1.398       .  A
C2299      C2300   1.396       .  A
C2300      H2311   1.082       .  S
C2301      C2302   1.386       .  A
C2301      H2312   1.085       .  S
C2302      C2303   1.398       .  A
C2302      H2313   1.084       .  S
C2303      C2304   1.423       .  A
C2303      C2308   1.399       .  A
C2304      C2305   1.414       .  A
C2305      C2306   1.397       .  A
C2305      H2314   1.078       .  S
C2306      C2307   1.401       .  A
C2306      H2315   1.083   1_565  S
C2307      C2308   1.398       .  A
C2308      H2316   1.085       .  S
C2317      C2318   1.400       .  A
C2317      C2322   1.401       .  A
C2318      C2319   1.391       .  A
C2318      H2331   1.084       .  S
C2319      C2320   1.412       .  A
C2319      H2332   1.077       .  S
C2320      C2326   1.426       .  A
C2320      C2321   1.423       .  A
C2321      C2323   1.400       .  A
C2321      C2322   1.407       .  A
C2322      H2333   1.084       .  S
C2323      C2324   1.391       .  A
C2323      H2334   1.083       .  S
C2324      C2325   1.400       .  A
C2324      H2335   1.084       .  S
C2325      C2326   1.421       .  A
C2325      C2330   1.402       .  A
C2326      C2327   1.416       .  A
C2327      C2328   1.394       .  A
C2327      H2336   1.077       .  S
C2328      C2329   1.396       .  A
C2328      H2337   1.084       .  S
C2329      C2330   1.399       .  A
C2330      H2338   1.084       .  S
C2339      C2340   1.399       .  A
C2339      C2344   1.399       .  A
C2340      C2341   1.392       .  A
C2340      H2353   1.084       .  S
C2341      C2342   1.413       .  A
C2341      H2354   1.075       .  S
C2342      C2348   1.429       .  A
C2342      C2343   1.424       .  A
C2343      C2345   1.400       .  A
C2343      C2344   1.409       .  A
C2344      H2355   1.082       .  S
C2345      C2346   1.392       .  A
C2345      H2356   1.083       .  S
C2346      C2347   1.400       .  A
C2346      H2357   1.084       .  S
C2347      C2348   1.421       .  A
C2347      C2352   1.405       .  A
C2348      C2349   1.416       .  A
C2349      C2350   1.395       .  A
C2349      H2358   1.075       .  S
C2350      C2351   1.394       .  A
C2350      H2359   1.078       .  S
C2351      C2352   1.403       .  A
C2352      H2360   1.084       .  S
C2361      C2362   1.400       .  A
C2361      C2366   1.399       .  A
C2362      C2363   1.395       .  A
C2362      H2375   1.084       .  S
C2363      C2364   1.414       .  A
C2363      H2376   1.077       .  S
C2364      C2370   1.431       .  A
C2364      C2365   1.423       .  A
C2365      C2367   1.400       .  A
C2365      C2366   1.408       .  A
C2366      H2377   1.082       .  S
C2367      C2368   1.392       .  A
C2367      H2378   1.084       .  S
C2368      C2369   1.400       .  A
C2368      H2379   1.084       .  S
C2369      C2370   1.421       .  A
C2369      C2374   1.406       .  A
C2370      C2371   1.415       .  A
C2371      C2372   1.397       .  A
C2371      H2380   1.077       .  S
C2372      C2373   1.396       .  A
C2373      C2374   1.404       .  A
C2374      H2382   1.084       .  S
C2383      C2384   1.396       .  A
C2383      C2388   1.399       .  A
C2384      C2385   1.399       .  A
C2384      H2397   1.084       .  S
C2385      C2386   1.418       .  A
C2385      H2398   1.077       .  S
C2386      C2392   1.431       .  A
C2386      C2387   1.422       .  A
C2387      C2389   1.399       .  A
C2387      C2388   1.402       .  A
C2388      H2399   1.085       .  S
C2389      C2390   1.389       .  A
C2389      H2400   1.084       .  S
C2390      C2391   1.398       .  A
C2390      H2401   1.084       .  S
C2391      C2392   1.425       .  A
C2391      C2396   1.406       .  A
C2392      C2393   1.414       .  A
C2393      C2394   1.396       .  A
C2393      H2402   1.078       .  S
C2394      C2395   1.399       .  A
C2394      H2403   1.083       .  S
C2395      C2396   1.396       .  A
C2396      H2404   1.085       .  S
C2405      C2406   1.400       .  A
C2405      C2410   1.397       .  A
C2406      C2407   1.394       .  A
C2406      H2419   1.084       .  S
C2407      C2408   1.414       .  A
C2407      H2420   1.077       .  S
C2408      C2414   1.428       .  A
C2408      C2409   1.424       .  A
C2409      C2411   1.398       .  A
C2409      C2410   1.403       .  A
C2410      H2421   1.085       .  S
C2411      C2412   1.387       .  A
C2411      H2422   1.084       .  S
C2412      C2413   1.399       .  A
C2412      H2423   1.084       .  S
C2413      C2414   1.422       .  A
C2413      C2418   1.400       .  A
C2414      C2415   1.417       .  A
C2415      C2416   1.397       .  A
C2415      H2424   1.077       .  S
C2416      C2417   1.398       .  A
C2416      H2425   1.082       .  S
C2417      C2418   1.398       .  A
C2418      H2426   1.084       .  S
C2427      C2428   1.397       .  A
C2427      C2432   1.399       .  A
C2428      C2429   1.394       .  A
C2428      H2441   1.083       .  S
C2429      C2430   1.417       .  A
C2429      H2442   1.077       .  S
C2430      C2436   1.425       .  A
C2430      C2431   1.420       .  A
C2431      C2433   1.400       .  A
C2431      C2432   1.397       .  A
C2432      H2443   1.080       .  S
C2433      C2434   1.388       .  A
C2433      H2444   1.083       .  S
C2434      C2435   1.398       .  A
C2434      H2445   1.085       .  S
C2435      C2436   1.424       .  A
C2435      C2440   1.403       .  A
C2436      C2437   1.412       .  A
C2437      C2438   1.391       .  A
C2437      H2446   1.079       .  S
C2438      C2439   1.399       .  A
C2438      H2447   1.083       .  S
C2439      C2440   1.397       .  A
C2440      H2448   1.087       .  S
C2449      C2450   1.393       .  A
C2449      C2454   1.395       .  A
C2450      C2451   1.394       .  A
C2450      H2463   1.084       .  S
C2451      C2452   1.416       .  A
C2451      H2464   1.078       .  S
C2452      C2458   1.425       .  A
C2452      C2453   1.422       .  A
C2453      C2455   1.399       .  A
C2453      C2454   1.399       .  A
C2454      H2465   1.085       .  S
C2455      C2456   1.388       .  A
C2455      H2466   1.084       .  S
C2456      C2457   1.398       .  A
C2456      H2467   1.084       .  S
C2457      C2458   1.424       .  A
C2457      C2462   1.402       .  A
C2458      C2459   1.414       .  A
C2459      C2460   1.392       .  A
C2459      H2468   1.078       .  S
C2460      C2461   1.395       .  A
C2460      H2469   1.084       .  S
C2461      C2462   1.395       .  A
C2462      H2470   1.085       .  S
C2471      C2472   1.398       .  A
C2471      C2476   1.396       .  A
C2472      C2473   1.395       .  A
C2472      H2485   1.083       .  S
C2473      C2474   1.415       .  A
C2473      H2486   1.080       .  S
C2474      C2480   1.430       .  A
C2474      C2475   1.424       .  A
C2475      C2477   1.399       .  A
C2475      C2476   1.405       .  A
C2476      H2487   1.084       .  S
C2477      C2478   1.390       .  A
C2477      H2488   1.085       .  S
C2478      C2479   1.399       .  A
C2478      H2489   1.084       .  S
C2479      C2480   1.423       .  A
C2479      C2484   1.405       .  A
C2480      C2481   1.415       .  A
C2481      C2482   1.396       .  A
C2481      H2490   1.081       .  S
C2482      C2483   1.396       .  A
C2483      C2484   1.400       .  A
C2484      H2492   1.086       .  S
C2493      C2494   1.397       .  A
C2493      C2498   1.404       .  A
C2494      C2495   1.398       .  A
C2495      C2496   1.416       .  A
C2495      H2508   1.077       .  S
C2496      C2502   1.429       .  A
C2496      C2497   1.420       .  A
C2497      C2499   1.400       .  A
C2497      C2498   1.403       .  A
C2498      H2509   1.084       .  S
C2499      C2500   1.391       .  A
C2499      H2510   1.084       .  S
C2500      C2501   1.399       .  A
C2500      H2511   1.084       .  S
C2501      C2502   1.423       .  A
C2501      C2506   1.406       .  A
C2502      C2503   1.414       .  A
C2503      C2504   1.395       .  A
C2503      H2512   1.077       .  S
C2504      C2505   1.400       .  A
C2504      H2513   1.083       .  S
C2505      C2506   1.398       .  A
C2506      H2514   1.082       .  S
C2515      C2516   1.400       .  A
C2515      C2520   1.398       .  A
C2516      C2517   1.394       .  A
C2516      H2529   1.081       .  S
C2517      C2518   1.413       .  A
C2517      H2530   1.078       .  S
C2518      C2524   1.430       .  A
C2518      C2519   1.425       .  A
C2519      C2521   1.399       .  A
C2519      C2520   1.408       .  A
C2520      H2531   1.085       .  S
C2521      C2522   1.390       .  A
C2521      H2532   1.084       .  S
C2522      C2523   1.400       .  A
C2523      C2524   1.421       .  A
C2523      C2528   1.403       .  A
C2524      C2525   1.418       .  A
C2525      C2526   1.399       .  A
C2525      H2534   1.078       .  S
C2526      C2527   1.396       .  A
C2527      C2528   1.403       .  A
