geometry optimzed in LAMMPS
_audit_creation_date              2020-12-01 
_audit_creation_method            'lammps2cif' 
_symmetry_space_group_name_H-M    'P1' 
_symmetry_Int_Tables_number       1 
_symmetry_cell_setting            triclinic 
loop_ 
_symmetry_equiv_pos_as_xyz 
  x,y,z 
_cell_length_a                    60.27580323 
_cell_length_b                    60.37191853949524 
_cell_length_c                    43.680650169978854 
_cell_angle_alpha                 90.08958243321688 
_cell_angle_beta                  89.73562024046902 
_cell_angle_gamma                 89.98877064975031 
loop_ 
_atom_site_label 
_atom_site_type_symbol 
_atom_site_fract_x 
_atom_site_fract_y 
_atom_site_fract_z 
_atom_site_charge 
In1        In  0.10382810  0.39419711  0.12100967     1.36900
C2          C  0.13245281  0.38661493  0.16552819     0.77100
O3          O  0.10658897  0.35962182  0.10238663    -0.61300
O4          O  0.11761058  0.38662029  0.07487143    -0.52200
C5          C  0.06015226  0.38856312  0.12058438     0.69800
O6          O  0.07155550  0.38648969  0.14457166    -0.47100
C7          C  0.10521421  0.43810252  0.11970638     0.74500
O8          O  0.11265242  0.37991588  0.16659285    -0.58900
O9          O  0.11199879  0.42635105  0.09766560    -0.49000
O10         O  0.13809752  0.39572332  0.14076554    -0.55400
C11         C  0.11363786  0.36615830  0.07671632     0.84700
O12         O  0.07111197  0.39374886  0.09706590    -0.57300
O13         O  0.09750410  0.42733511  0.14200975    -0.60500
In14       In  0.85038999  0.38952724  0.12370758     1.36900
C15         C  0.84249294  0.36256023  0.07726016     0.77100
O16         O  0.88330698  0.39487385  0.10194749    -0.61300
O17         O  0.88198161  0.37481892  0.14190330    -0.52200
C18         C  0.84846872  0.43367385  0.12286833     0.69800
O19         O  0.83555073  0.42170779  0.10728155    -0.47100
C20         C  0.82481701  0.38284614  0.17214881     0.74500
O21         O  0.83939197  0.38316424  0.07573774    -0.58900
O22         O  0.84547693  0.37982364  0.17250421    -0.49000
O23         O  0.84709548  0.35537428  0.10352387    -0.55400
C24         C  0.89381638  0.38333193  0.12104956     0.84700
O25         O  0.86201216  0.42298459  0.13903656    -0.57300
O26         O  0.81684863  0.38752110  0.14634295    -0.60500
In27       In  0.10869345  0.64888559  0.12005187     1.36900
C28         C  0.11662394  0.67455206  0.07217102     0.77100
O29         O  0.07497014  0.65216718  0.09979428    -0.61300
O30         O  0.07819413  0.65702890  0.14777977    -0.52200
C31         C  0.10826906  0.60480785  0.11954047     0.69800
O32         O  0.12024894  0.61606474  0.10164970    -0.47100
C33         C  0.13830783  0.65518921  0.16365615     0.74500
O34         O  0.11789839  0.65373076  0.07099657    -0.58900
O35         O  0.11956980  0.66443929  0.16406130    -0.49000
O36         O  0.11325385  0.68247519  0.09852629    -0.55400
C37         C  0.06547725  0.65643118  0.12488550     0.84700
O38         O  0.09620725  0.61614839  0.13718985    -0.57300
O39         O  0.14283640  0.64478216  0.13946277    -0.60500
In40       In  0.85581553  0.64447441  0.12739042     1.36900
C41         C  0.82823974  0.65254856  0.17340998     0.77100
O42         O  0.85802888  0.67861561  0.10731370    -0.61300
O43         O  0.84166166  0.65355816  0.08183003    -0.52200
C44         C  0.89964121  0.64801114  0.12955344     0.69800
O45         O  0.88711774  0.65557266  0.15027308    -0.47100
C46         C  0.85122716  0.60068062  0.12457422     0.74500
O47         O  0.84860659  0.65700247  0.17454362    -0.58900
O48         O  0.84603721  0.61315804  0.10258537    -0.49000
O49         O  0.82149283  0.64583433  0.14777926    -0.55400
C50         C  0.84894162  0.67309332  0.08260347     0.84700
O51         O  0.88970579  0.63798322  0.10830074    -0.57300
O52         O  0.85895972  0.61067314  0.14752712    -0.60500
In53       In  0.35000746  0.14762746  0.12980079     1.36900
C54         C  0.34417841  0.17439470  0.17764306     0.77100
O55         O  0.38339361  0.13655145  0.14568029    -0.61300
O56         O  0.38206104  0.16111115  0.11103854    -0.52200
C57         C  0.34385520  0.10395990  0.12778168     0.69800
O58         O  0.33604112  0.11586548  0.14908424    -0.47100
C59         C  0.32376998  0.15668327  0.08306000     0.74500
O60         O  0.33945239  0.15407902  0.17843375    -0.58900
O61         O  0.34437107  0.16000252  0.08242404    -0.49000
O62         O  0.35008960  0.18142817  0.15176155    -0.55400
C63         C  0.39401989  0.14909140  0.12782750     0.84700
O64         O  0.35466654  0.11448397  0.10776251    -0.57300
O65         O  0.31606694  0.15102673  0.10875986    -0.60500
In66       In  0.35179864  0.89396648  0.12622532     1.36900
C67         C  0.32404702  0.88573077  0.08092264     0.77100
O68         O  0.35237716  0.85930522  0.14462324    -0.61300
O69         O  0.33925121  0.88491506  0.17286606    -0.52200
C70         C  0.39586649  0.89212231  0.12486670     0.69800
O71         O  0.38419034  0.88687852  0.10208545    -0.47100
C72         C  0.34670097  0.93756400  0.12759866     0.74500
O73         O  0.34414278  0.87998858  0.08031509    -0.58900
O74         O  0.34179399  0.92545068  0.15015968    -0.49000
O75         O  0.31737577  0.89357879  0.10610496    -0.55400
C76         C  0.34519188  0.86495830  0.17061961     0.84700
O77         O  0.38496113  0.89858545  0.14785050    -0.57300
O78         O  0.35451998  0.92735902  0.10481483    -0.60500
In79       In  0.60502357  0.14368032  0.12855862     1.36900
C80         C  0.63381332  0.15069765  0.08354363     0.77100
O81         O  0.60429360  0.17846926  0.14796730    -0.61300
O82         O  0.61768754  0.15264183  0.17506942    -0.52200
C83         C  0.56102919  0.14585557  0.12550726     0.69800
O84         O  0.57340042  0.15348657  0.10468167    -0.47100
C85         C  0.60986835  0.09996279  0.13044562     0.74500
O86         O  0.61354342  0.15556839  0.08152439    -0.58900
O87         O  0.61390470  0.11213345  0.15327777    -0.49000
O88         O  0.63986089  0.14414369  0.10958504    -0.55400
C89         C  0.61202693  0.17268764  0.17348737     0.84700
O90         O  0.57123238  0.13699094  0.14740840    -0.57300
O91         O  0.60302434  0.11017822  0.10721744    -0.60500
In92       In  0.60661362  0.89034748  0.13407018     1.36900
C93         C  0.61155055  0.86466500  0.18280685     0.77100
O94         O  0.57310512  0.90101258  0.14975010    -0.61300
O95         O  0.57495966  0.87739711  0.11370982    -0.52200
C96         C  0.61240900  0.93369106  0.13135798     0.69800
O97         O  0.62223670  0.92181800  0.15088035    -0.47100
C98         C  0.63464184  0.88185321  0.08882222     0.74500
O99         O  0.61299576  0.88544186  0.18402177    -0.58900
O100        O  0.61427487  0.87726919  0.08723447    -0.49000
O101        O  0.60908473  0.85680622  0.15630395    -0.55400
C102        C  0.56276014  0.88909139  0.13091148     0.84700
O103        O  0.59992838  0.92323238  0.11332918    -0.57300
O104        O  0.64109688  0.88852697  0.11462361    -0.60500
In105      In  0.35226022  0.20988671  0.25742650     1.36900
C106        C  0.39673850  0.21361174  0.25882815     0.77100
O107        O  0.35611551  0.20613988  0.30838519    -0.61300
O108        O  0.34022847  0.18040542  0.28340439    -0.52200
C109        C  0.32311997  0.24343204  0.25758675     0.69800
O110        O  0.34205537  0.24486528  0.24543585    -0.47100
C111        C  0.34488556  0.18811366  0.20532130     0.74500
O112        O  0.38404937  0.22943366  0.26610457    -0.58900
O113        O  0.33908922  0.18080973  0.23107511    -0.49000
O114        O  0.38662512  0.19633284  0.25083910    -0.55400
C115        C  0.34762652  0.18702358  0.30871392     0.84700
O116        O  0.31927433  0.22499656  0.26989828    -0.57300
O117        O  0.35313688  0.20730160  0.20580036    -0.60500
In118      In  0.60930980  0.21045237  0.25217485     1.36900
C119        C  0.56482294  0.21422293  0.25538550     0.77100
O120        O  0.60385613  0.20627216  0.20110768    -0.61300
O121        O  0.62081557  0.18102773  0.22528267    -0.52200
C122        C  0.63867066  0.24406470  0.25177523     0.69800
O123        O  0.61920894  0.24613950  0.26204242    -0.47100
C124        C  0.61778533  0.18829872  0.30339541     0.74500
O125        O  0.57687904  0.22870330  0.24273947    -0.58900
O126        O  0.62120484  0.18038861  0.27713143    -0.49000
O127        O  0.57554781  0.19820381  0.26620348    -0.55400
C128        C  0.61271291  0.18732962  0.20029766     0.84700
O129        O  0.64292127  0.22497345  0.24174691    -0.57300
O130        O  0.61148325  0.20823847  0.30372913    -0.60500
In131      In  0.17243897  0.64568903  0.24328717     1.36900
C132        C  0.17504227  0.60134448  0.24517738     0.77100
O133        O  0.16895658  0.64434412  0.29470392    -0.61300
O134        O  0.14156409  0.65520908  0.26811012    -0.52200
C135        C  0.20579167  0.67468152  0.24293670     0.69800
O136        O  0.20788055  0.65530027  0.23252622    -0.47100
C137        C  0.15230194  0.65408987  0.19076788     0.74500
O138        O  0.19135436  0.61362168  0.25167138    -0.58900
O139        O  0.14670630  0.66309609  0.21558713    -0.49000
O140        O  0.15780940  0.61181987  0.23784171    -0.55400
C141        C  0.14898756  0.65066552  0.29423031     0.84700
O142        O  0.18696196  0.67881495  0.25403216    -0.57300
O143        O  0.16934695  0.64203806  0.19217476    -0.60500
In144      In  0.17063714  0.38924501  0.24297082     1.36900
C145        C  0.17381495  0.43357025  0.24514628     0.77100
O146        O  0.16622237  0.39408212  0.19224898    -0.61300
O147        O  0.14063445  0.37801308  0.21736496    -0.52200
C148        C  0.20427478  0.36043268  0.24239673     0.69800
O149        O  0.20646287  0.38022441  0.25102697    -0.47100
C150        C  0.15032466  0.38083511  0.29534088     0.74500
O151        O  0.15807299  0.42284280  0.25695054    -0.58900
O152        O  0.14181215  0.37656174  0.26974820    -0.49000
O153        O  0.18826459  0.42158139  0.23223010    -0.55400
C154        C  0.14705277  0.38570868  0.19209782     0.84700
O155        O  0.18504849  0.35561804  0.23347282    -0.57300
O156        O  0.17003623  0.38782975  0.29438058    -0.60500
In157      In  0.60762667  0.82667091  0.26090079     1.36900
C158        C  0.56387233  0.81757384  0.26160373     0.77100
O159        O  0.61108450  0.83051625  0.31201250    -0.61300
O160        O  0.61665678  0.85858704  0.28356727    -0.52200
C161        C  0.63798512  0.79431299  0.26085615     0.69800
O162        O  0.61749616  0.79057008  0.26296353    -0.47100
C163        C  0.61132970  0.85096613  0.21038123     0.74500
O164        O  0.57592457  0.81532404  0.23824591    -0.58900
O165        O  0.61053484  0.85929944  0.23679329    -0.49000
O166        O  0.57427395  0.82390886  0.28491658    -0.55400
C167        C  0.61533944  0.85096845  0.31035985     0.84700
O168        O  0.64283185  0.81453055  0.25895054    -0.57300
O169        O  0.61078186  0.83010345  0.20966294    -0.47700
In170      In  0.35288947  0.82621242  0.24682446     1.36900
C171        C  0.39670966  0.81788561  0.24956221     0.77100
O172        O  0.35499366  0.83135049  0.19602881    -0.61300
O173        O  0.33952385  0.85627251  0.22329993    -0.52200
C174        C  0.32352069  0.79314537  0.24302551     0.69800
O175        O  0.34400978  0.78977380  0.24613454    -0.47100
C176        C  0.34782151  0.85098539  0.29663172     0.74500
O177        O  0.38695808  0.82326754  0.22527618    -0.58900
O178        O  0.35378406  0.85875085  0.27115599    -0.49000
O179        O  0.38391037  0.81581600  0.27223390    -0.55400
C180        C  0.34598051  0.85021758  0.19709519     0.84700
O181        O  0.31823577  0.81326893  0.24209726    -0.57300
O182        O  0.34374796  0.83050031  0.29664588    -0.60500
In183      In  0.79133757  0.39135285  0.25291633     1.36900
C184        C  0.78904906  0.43582260  0.25122103     0.77100
O185        O  0.79554533  0.39617708  0.30383557    -0.61300
O186        O  0.82042880  0.37862103  0.27919951    -0.52200
C187        C  0.75752006  0.36243174  0.25347899     0.69800
O188        O  0.75526915  0.38223689  0.24495949    -0.47100
C189        C  0.81175117  0.38334210  0.20030522     0.74500
O190        O  0.77304354  0.42392318  0.26014524    -0.58900
O191        O  0.82029956  0.37915302  0.22584505    -0.49000
O192        O  0.80593184  0.42494827  0.24327372    -0.55400
C193        C  0.81426638  0.38679912  0.30433621     0.84700
O194        O  0.77683478  0.35771782  0.26214454    -0.57300
O195        O  0.79199043  0.39015533  0.20138615    -0.60500
In196      In  0.79166118  0.64823086  0.25245578     1.36900
C197        C  0.78915604  0.60378230  0.25249117     0.77100
O198        O  0.79493742  0.64480114  0.20136422    -0.61300
O199        O  0.82132914  0.65974371  0.22612099    -0.52200
C200        C  0.75786098  0.67697468  0.25393422     0.69800
O201        O  0.75648045  0.65783898  0.26526478    -0.47100
C202        C  0.81278591  0.65649457  0.30399419     0.74500
O203        O  0.77409583  0.61588499  0.24145002    -0.58900
O204        O  0.82062376  0.66160361  0.27819339    -0.49000
O205        O  0.80514282  0.61445143  0.26358234    -0.55400
C206        C  0.81421226  0.65294915  0.20073202     0.84700
O207        O  0.77628764  0.68108647  0.24154366    -0.57300
O208        O  0.79337277  0.64872925  0.30369899    -0.60500
In209      In  0.35821535  0.14400587  0.37928854     1.36900
C210        C  0.32982017  0.14990900  0.42495405     0.77100
O211        O  0.35638579  0.17863599  0.36068534    -0.61300
O212        O  0.34361915  0.15225284  0.33373837    -0.52200
C213        C  0.40163235  0.15116970  0.37973402     0.69800
O214        O  0.38932327  0.15603002  0.40219126    -0.47100
C215        C  0.35737533  0.10001461  0.37620311     0.74500
O216        O  0.35000759  0.15508439  0.42675530    -0.58900
O217        O  0.35108467  0.11212503  0.35440012    -0.49000
O218        O  0.32369684  0.14310577  0.39905276    -0.55400
C219        C  0.34853758  0.17250286  0.33538612     0.84700
O220        O  0.39174710  0.14220369  0.35759050    -0.57300
O221        O  0.36434971  0.11047108  0.39920629    -0.60500
In222      In  0.35477086  0.88935748  0.37352887     1.36900
C223        C  0.34749492  0.86463985  0.32427800     0.77100
O224        O  0.38913607  0.89744094  0.35938422    -0.61300
O225        O  0.38522524  0.87159943  0.39177935    -0.52200
C226        C  0.35309275  0.93316587  0.37383665     0.69800
O227        O  0.34105095  0.92164389  0.35631485    -0.47100
C228        C  0.32711188  0.88424112  0.42044255     0.74500
O229        O  0.34987124  0.88529959  0.32316232    -0.58900
O230        O  0.34690096  0.87747196  0.42100161    -0.49000
O231        O  0.34668442  0.85667654  0.35089360    -0.55400
C232        C  0.39843075  0.88324664  0.37602421     0.84700
O233        O  0.36545302  0.92213617  0.39137539    -0.57300
O234        O  0.32090232  0.89189793  0.39507689    -0.60500
In235      In  0.61119573  0.14738913  0.37774204     1.36900
C236        C  0.61850613  0.17444209  0.33085098     0.77100
O237        O  0.57752179  0.14049261  0.35957327    -0.61300
O238        O  0.58009361  0.16256861  0.39734683    -0.52200
C239        C  0.61293786  0.10344598  0.37571723     0.69800
O240        O  0.62482659  0.11543485  0.35856286    -0.47100
C241        C  0.63768831  0.15316909  0.42553124     0.74500
O242        O  0.62202624  0.15391063  0.32943013    -0.58900
O243        O  0.61722446  0.15724580  0.42636602    -0.49000
O244        O  0.61343153  0.18153984  0.35707593    -0.55400
C245        C  0.56759525  0.15285165  0.37846933     0.84700
O246        O  0.60046627  0.11401338  0.39378986    -0.57300
O247        O  0.64509918  0.14780203  0.39955370    -0.60500
In248      In  0.60862430  0.89311251  0.38311879     1.36900
C249        C  0.61623814  0.86545538  0.33718656     0.77100
O250        O  0.64262424  0.89305527  0.40455667    -0.61300
O251        O  0.61507955  0.88218630  0.43107304    -0.52200
C252        C  0.61229922  0.93678300  0.38097494     0.69800
O253        O  0.62230137  0.92425459  0.36234340    -0.47100
C254        C  0.56485337  0.88737785  0.38292870     0.74500
O255        O  0.61803888  0.88613314  0.33458890    -0.58900
O256        O  0.57685536  0.88081600  0.40470588    -0.49000
O257        O  0.61301770  0.85864442  0.36411072    -0.55400
C258        C  0.63544542  0.88682097  0.43028356     0.84700
O259        O  0.60041574  0.92688795  0.40043686    -0.57300
O260        O  0.57522680  0.89729892  0.36194472    -0.60500
In261      In  0.11120388  0.38905090  0.37077156     1.36900
C262        C  0.13716406  0.38059731  0.32338168     0.77100
O263        O  0.10351988  0.42212309  0.35050828    -0.61300
O264        O  0.12463472  0.42126233  0.38922749    -0.52200
C265        C  0.06748972  0.38625786  0.37222505     0.69800
O266        O  0.07905939  0.37577138  0.35286857    -0.47100
C267        C  0.11826640  0.36218616  0.41765072     0.74500
O268        O  0.11654620  0.37738169  0.32289965    -0.58900
O269        O  0.12373876  0.38232571  0.41797689    -0.49000
O270        O  0.14492442  0.38605288  0.34903515    -0.55400
C271        C  0.11476927  0.43298742  0.36959008     0.84700
O272        O  0.07839744  0.39796597  0.39074022    -0.57300
O273        O  0.11109249  0.35522698  0.39238301    -0.60500
In274      In  0.85752245  0.39424925  0.37587388     1.36900
C275        C  0.82880713  0.38715873  0.33107804     0.77100
O276        O  0.85651545  0.35956431  0.39462790    -0.61300
O277        O  0.84489024  0.38599328  0.42262969    -0.52200
C278        C  0.90123263  0.38957271  0.37497500     0.69800
O279        O  0.88927875  0.38475413  0.35226882    -0.47100
C280        C  0.85492969  0.43822213  0.37739644     0.74500
O281        O  0.84863693  0.38057033  0.32980035    -0.58900
O282        O  0.84774094  0.42618791  0.39886616    -0.49000
O283        O  0.82313494  0.39571841  0.35623195    -0.55400
C284        C  0.84972965  0.36573268  0.42059084     0.84700
O285        O  0.89079780  0.39709273  0.39778093    -0.57300
O286        O  0.86383376  0.42770892  0.35561116    -0.60500
In287      In  0.10672580  0.64393838  0.36731830     1.36900
C288        C  0.13462888  0.65084516  0.32125571     0.77100
O289        O  0.10500373  0.67807235  0.38818418    -0.61300
O290        O  0.11957563  0.65230105  0.41417353    -0.52200
C291        C  0.06285211  0.64759334  0.36497362     0.69800
O292        O  0.07558151  0.65883623  0.34806547    -0.47100
C293        C  0.11106928  0.60010089  0.36907396     0.74500
O294        O  0.11401796  0.65370206  0.31908616    -0.58900
O295        O  0.11622334  0.61233356  0.39144816    -0.49000
O296        O  0.14138763  0.64640720  0.34780295    -0.55400
C297        C  0.11306900  0.67213191  0.41337721     0.84700
O298        O  0.07263819  0.63419212  0.38241611    -0.57300
O299        O  0.10362374  0.61036042  0.34619086    -0.60500
In300      In  0.85352397  0.64958916  0.37758634     1.36900
C301        C  0.84489216  0.67549574  0.42510011     0.77100
O302        O  0.88729719  0.64922346  0.39813315    -0.61300
O303        O  0.88402712  0.66104437  0.35253032    -0.52200
C304        C  0.85246715  0.60531675  0.37823686     0.69800
O305        O  0.83904673  0.61706009  0.39340020    -0.47100
C306        C  0.82631666  0.65686897  0.33150031     0.74500
O307        O  0.84382489  0.65470157  0.42635393    -0.58900
O308        O  0.84631679  0.66281455  0.33096180    -0.49000
O309        O  0.84848522  0.68331315  0.39881937    -0.55400
C310        C  0.89681061  0.65679874  0.37458247     0.84700
O311        O  0.86633899  0.61624881  0.36282684    -0.57300
O312        O  0.81966850  0.64901631  0.35658270    -0.60500
In313      In  0.29050672  0.89109358  0.99970493     1.36900
C314        C  0.28713178  0.93547234  0.50094013     0.77100
O315        O  0.29162149  0.89433231  0.05140431    -0.61300
O316        O  0.31837609  0.87866319  0.02817386    -0.52200
C317        C  0.25769352  0.86111586  0.99695113     0.69800
O318        O  0.25465374  0.88131303  0.49112696    -0.47100
C319        C  0.31314745  0.88499214  0.44794120     0.74500
O320        O  0.27062855  0.92293222  0.00477960    -0.58900
O321        O  0.32012560  0.87880383  0.47361547    -0.49000
O322        O  0.30507978  0.92526358  0.49643259    -0.55400
C323        C  0.31061153  0.88562062  0.05314453     0.84700
O324        O  0.27730055  0.85643516  0.00422712    -0.57300
O325        O  0.29398529  0.89337824  0.44833356    -0.60500
In326      In  0.29092096  0.14755921  0.50225841     1.36900
C327        C  0.28642887  0.10329067  0.50436004     0.77100
O328        O  0.29566860  0.14280499  0.45144778    -0.61300
O329        O  0.32179850  0.15714665  0.47729218    -0.52200
C330        C  0.25823866  0.17736172  0.49923633     0.69800
O331        O  0.25559595  0.15827836  0.01022777    -0.47100
C332        C  0.31069962  0.15640069  0.05498613     0.74500
O333        O  0.27173870  0.11571555  0.49308146    -0.58900
O334        O  0.31934313  0.16067600  0.02940457    -0.49000
O335        O  0.30301557  0.11357221  0.01448187    -0.55400
C336        C  0.31519115  0.15034266  0.45167657     0.84700
O337        O  0.27755047  0.18106663  0.48945530    -0.57300
O338        O  0.29104620  0.14928445  0.05388072    -0.60500
In339      In  0.85346784  0.32757283  0.99815842     1.36900
C340        C  0.89805551  0.32397356  0.00025374     0.77100
O341        O  0.85750292  0.33183974  0.44708218    -0.61300
O342        O  0.84283057  0.35786285  0.47302203    -0.52200
C343        C  0.82430405  0.29401890  0.99636156     0.69800
O344        O  0.84291899  0.29242850  0.00919072    -0.47100
C345        C  0.84365269  0.34877329  0.04978102     0.74500
O346        O  0.88740867  0.34056542  0.00968374    -0.58900
O347        O  0.83931673  0.35643234  0.02374494    -0.49000
O348        O  0.88589341  0.30891231  0.98932016    -0.55400
C349        C  0.84950542  0.35118021  0.44729924     0.84700
O350        O  0.82082121  0.31260712  0.98434353    -0.57300
O351        O  0.85150038  0.32940070  0.04974014    -0.60500
In352      In  0.11059769  0.32866833  0.49868470     1.36900
C353        C  0.06621361  0.32501132  0.50059742     0.77100
O354        O  0.10873224  0.33177218  0.05012960    -0.61300
O355        O  0.11980440  0.35932401  0.02394990    -0.52200
C356        C  0.14017194  0.29571893  0.49996987     0.69800
O357        O  0.12037463  0.29287426  0.49168921    -0.47100
C358        C  0.11789819  0.34880524  0.44551514     0.74500
O359        O  0.07629273  0.34269137  0.49431585    -0.58900
O360        O  0.12488438  0.35619507  0.47058749    -0.49000
O361        O  0.07889432  0.30881597  0.50581155    -0.55400
C362        C  0.11472872  0.35179986  0.04987018     0.84700
O363        O  0.14468392  0.31532169  0.50753856    -0.57300
O364        O  0.10859594  0.33013192  0.44709123    -0.60500
In365      In  0.85252793  0.71039459  0.00455458     1.36900
C366        C  0.89675878  0.71441752  0.50178271     0.77100
O367        O  0.85885076  0.70568800  0.05478381    -0.61300
O368        O  0.83962013  0.68163118  0.03121281    -0.52200
C369        C  0.82296779  0.74324967  0.00656043     0.69800
O370        O  0.84238324  0.74592884  0.49667097    -0.47100
C371        C  0.84474770  0.68897893  0.45283384     0.74500
O372        O  0.88466210  0.72886934  0.01436418    -0.58900
O373        O  0.84223611  0.68032277  0.47879025    -0.49000
O374        O  0.88620611  0.69832427  0.49077224    -0.55400
C375        C  0.84866822  0.68745342  0.05582228     0.84700
O376        O  0.81881299  0.72389007  0.01547677    -0.57300
O377        O  0.84959153  0.70932384  0.45308563    -0.60500
In378      In  0.10915753  0.70941831  0.99227717     1.36900
C379        C  0.06468258  0.71328338  0.99443233     0.77100
O380        O  0.10338874  0.70494590  0.44154877    -0.61300
O381        O  0.12172817  0.68042695  0.46530831    -0.52200
C382        C  0.13898085  0.74260978  0.99105836     0.69800
O383        O  0.11938592  0.74517447  0.00062603    -0.47100
C384        C  0.11650089  0.68800249  0.04436559     0.74500
O385        O  0.07706999  0.72864441  0.98471776    -0.58900
O386        O  0.12019807  0.67965017  0.01845961    -0.49000
O387        O  0.07507493  0.69630533  0.00288894    -0.55400
C388        C  0.11316673  0.68646231  0.44048405     0.84700
O389        O  0.14312225  0.72324986  0.98199694    -0.57300
O390        O  0.11051210  0.70802174  0.04395919    -0.60500
In391      In  0.67105296  0.89003676  0.01018380     1.36900
C392        C  0.67522500  0.93422033  0.01033726     0.77100
O393        O  0.66870930  0.89370652  0.45883889    -0.61300
O394        O  0.64123401  0.88035806  0.48326269    -0.52200
C395        C  0.70405608  0.86045383  0.00965031     0.69800
O396        O  0.70623663  0.87959237  0.02077007    -0.47100
C397        C  0.64893300  0.88214377  0.06172334     0.74500
O398        O  0.69124207  0.92153991  0.00388395    -0.58900
O399        O  0.64211104  0.87599950  0.03592597    -0.49000
O400        O  0.65750187  0.92423028  0.01678857    -0.55400
C401        C  0.64904518  0.88653466  0.45792593     0.84700
O402        O  0.68508830  0.85658434  0.99900987    -0.57300
O403        O  0.66796226  0.89080487  0.06162781    -0.60500
In404      In  0.67234404  0.14596963  0.00553202     1.36900
C405        C  0.67639758  0.10164089  0.00470156     0.77100
O406        O  0.66793593  0.14301995  0.05696536    -0.61300
O407        O  0.64189809  0.15695668  0.03094094    -0.52200
C408        C  0.70574048  0.17548591  0.00355412     0.69800
O409        O  0.70871069  0.15504300  0.99938254    -0.47100
C410        C  0.65108701  0.15267676  0.45335339     0.74500
O411        O  0.68993798  0.11401362  0.01853972    -0.58900
O412        O  0.64282054  0.15715339  0.47915597    -0.49000
O413        O  0.66122170  0.11197620  0.99119228    -0.55400
C414        C  0.64850292  0.15073163  0.05675517     0.84700
O415        O  0.68589522  0.18060924  0.00912406    -0.57300
O416        O  0.67092559  0.14592274  0.45389151    -0.60500
C417        C  0.65817487  0.99446348  0.01440984    -0.11300
C418        C  0.67819465  0.00558484  0.00831600     0.05900
C419        C  0.69755435  0.99294204  0.50365895    -0.10000
C420        C  0.69675853  0.96971034  0.50443581    -0.11700
C421        C  0.67663930  0.95872078  0.01013295    -0.01500
C422        C  0.65741510  0.97136096  0.01532121    -0.10600
C423        C  0.67852770  0.03022131  0.00632616     0.05900
H424        H  0.71320805  0.00101345  0.49875429     0.07800
H425        H  0.71183513  0.96037085  0.50040141     0.11300
H426        H  0.64165686  0.96337564  0.01989543     0.11500
H427        H  0.64303787  0.00366130  0.01863931     0.07800
C428        C  0.66114932  0.04152055  0.99170945    -0.11300
C429        C  0.66075590  0.06464967  0.99079552    -0.10600
C430        C  0.67768790  0.07711687  0.00456527    -0.01500
C431        C  0.69530765  0.06588619  0.51867015    -0.11700
C432        C  0.69577255  0.04265615  0.51943056    -0.10100
H433        H  0.64781246  0.03244321  0.98087645     0.07800
H434        H  0.64699477  0.07279201  0.97958987     0.11500
H435        H  0.70860237  0.07507591  0.52941005     0.11300
H436        H  0.70933273  0.03444795  0.53097994     0.07800
C437        C  0.76883295  0.77336818  0.01971970    -0.11300
C438        C  0.77350154  0.79446025  0.00783505     0.05900
C439        C  0.79470006  0.79876957  0.49597190    -0.10000
C440        C  0.81091881  0.78217187  0.49569206    -0.11700
C441        C  0.80621420  0.76106452  0.00741816    -0.01500
C442        C  0.78503096  0.75685884  0.01958506    -0.10600
C443        C  0.75602448  0.81169895  0.00762469     0.05900
H444        H  0.79864503  0.81487478  0.48652437     0.07800
H445        H  0.82712589  0.78581726  0.48615407     0.11300
H446        H  0.78092283  0.74074657  0.02888208     0.11500
H447        H  0.75264525  0.76969682  0.02931184     0.07800
C448        C  0.73447043  0.80640304  0.49758410    -0.11300
C449        C  0.71769312  0.82232795  0.49817979    -0.10600
C450        C  0.72205539  0.84384716  0.00897755    -0.01500
C451        C  0.74356490  0.84922034  0.01879457    -0.11700
C452        C  0.76045734  0.83329897  0.01794441    -0.10100
H453        H  0.73069348  0.78994993  0.48917162     0.07800
H454        H  0.70129765  0.81776345  0.49033493     0.11500
H455        H  0.74731283  0.86569922  0.02711800     0.11300
H456        H  0.77686341  0.83771535  0.02591017     0.07800
C457        C  0.95641603  0.69923662  0.48418160    -0.11300
C458        C  0.96834758  0.71664656  0.99778203     0.05900
C459        C  0.95642342  0.73385965  0.01211693    -0.10000
C460        C  0.93313420  0.73334571  0.01336969    -0.11700
C461        C  0.92130624  0.71571795  0.50008094    -0.01500
C462        C  0.93325502  0.69879038  0.48526341    -0.10600
C463        C  0.99307103  0.71629014  0.99763292     0.05900
H464        H  0.96513625  0.74742278  0.02297767     0.07800
H465        H  0.92436080  0.74660014  0.02496897     0.11300
H466        H  0.92469312  0.68503485  0.47462588     0.11500
H467        H  0.96508902  0.68590700  0.47259107     0.07800
C468        C  0.00437568  0.69657371  0.50437437    -0.11300
C469        C  0.02755251  0.69578205  0.50357983    -0.10600
C470        C  0.04008160  0.71464063  0.99574927    -0.01500
C471        C  0.02879114  0.73445994  0.98926760    -0.11700
C472        C  0.00550721  0.73531661  0.99039711    -0.10100
H473        H  0.99529548  0.68172543  0.51047540     0.07800
H474        H  0.03572818  0.68028357  0.50887373     0.11500
H475        H  0.03795840  0.74927466  0.98329355     0.11300
H476        H  0.99720007  0.75072374  0.98500860     0.07800
C477        C  0.79592440  0.23872412  0.01021172    -0.11300
C478        C  0.77521419  0.24200710  0.99617793     0.05900
C479        C  0.77118111  0.26227694  0.48140387    -0.10000
C480        C  0.78724950  0.27898933  0.48116097    -0.11700
C481        C  0.80775781  0.27587384  0.99569658    -0.01500
C482        C  0.81200796  0.25549939  0.01002235    -0.10600
C483        C  0.75756437  0.22472361  0.99780327     0.05900
H484        H  0.75555774  0.26524525  0.46998141     0.07800
H485        H  0.78352561  0.29447373  0.46980158     0.11300
H486        H  0.82765652  0.25263030  0.02143328     0.11500
H487        H  0.79948031  0.22339659  0.02204556     0.07800
C488        C  0.76263876  0.20208207  0.99439585    -0.11300
C489        C  0.74588274  0.18598987  0.99627523    -0.10600
C490        C  0.72373604  0.19220880  0.00176710    -0.01500
C491        C  0.71870740  0.21477123  0.50519178    -0.11700
C492        C  0.73537208  0.23080831  0.50318911    -0.10100
H493        H  0.77952712  0.19683426  0.98992032     0.07800
H494        H  0.75024053  0.16870595  0.99339987     0.11500
H495        H  0.70181144  0.22009744  0.50944508     0.11300
H496        H  0.73090482  0.24803270  0.50637908     0.07800
C497        C  0.00582336  0.34224629  0.99793043    -0.11300
C498        C  0.99456119  0.32220944  0.50349860     0.05900
C499        C  0.00723810  0.30291142  0.50824231    -0.10000
C500        C  0.03053546  0.30369538  0.50743985    -0.11700
C501        C  0.04162683  0.32376012  0.50172586    -0.01500
C502        C  0.02899149  0.34299794  0.99705900    -0.10600
C503        C  0.96976003  0.32175566  0.00415743     0.05900
H504        H  0.99915755  0.28726297  0.51294160     0.07800
H505        H  0.03985794  0.28862261  0.51125578     0.11300
H506        H  0.03701863  0.35871812  0.99258175     0.11500
H507        H  0.99669805  0.35737086  0.99367306     0.07800
C508        C  0.95776855  0.33953004  0.51686453    -0.11300
C509        C  0.93458907  0.34001078  0.51575131    -0.10600
C510        C  0.92266228  0.32269542  0.00204132    -0.01500
C511        C  0.93449509  0.30457078  0.98999940    -0.11700
C512        C  0.95779644  0.30409718  0.99105927    -0.10100
H513        H  0.96632684  0.35318953  0.52773219     0.07800
H514        H  0.92599374  0.35411474  0.52555102     0.11500
H515        H  0.92576242  0.29093603  0.97934876     0.11300
H516        H  0.96645539  0.29020298  0.98083485     0.07800
C517        C  0.19490002  0.26584562  0.00885262    -0.11300
C518        C  0.18943272  0.24415676  0.49996718     0.05900
C519        C  0.16739814  0.23935939  0.49183891    -0.10000
C520        C  0.15125838  0.25604802  0.49204747    -0.11700
C521        C  0.15685368  0.27778553  0.50055317    -0.01500
C522        C  0.17878368  0.28245510  0.00920578    -0.10600
C523        C  0.20681961  0.22675285  0.49893056     0.05900
H524        H  0.16276413  0.22281551  0.48470471     0.07800
H525        H  0.13447581  0.25200052  0.48528790     0.11300
H526        H  0.18353816  0.29902969  0.01605223     0.11500
H527        H  0.21164547  0.26994512  0.01571935     0.07800
C528        C  0.22796354  0.23149130  0.98677789    -0.11300
C529        C  0.24457126  0.21533888  0.98646824    -0.10600
C530        C  0.24040075  0.19412881  0.49838734    -0.01500
C531        C  0.21923643  0.18928413  0.51017293    -0.11700
C532        C  0.20258611  0.20542452  0.51038133    -0.10100
H533        H  0.23160572  0.24769166  0.97739699     0.07800
H534        H  0.26071976  0.21950626  0.97714382     0.11500
H535        H  0.21561703  0.17307767  0.51954316     0.11300
H536        H  0.18653115  0.20137229  0.52009193     0.07800
C537        C  0.16703429  0.79851750  0.00185222    -0.11300
C538        C  0.18872535  0.79411272  0.99145351     0.05900
C539        C  0.19363121  0.77276015  0.48036138    -0.10000
C540        C  0.17738711  0.75620644  0.47994591    -0.11700
C541        C  0.15584405  0.76053493  0.99070675    -0.01500
C542        C  0.15078196  0.78188664  0.00156059    -0.10600
C543        C  0.20630158  0.81145706  0.99277187     0.05900
H544        H  0.21008146  0.76889385  0.47183046     0.07800
H545        H  0.18178755  0.73994864  0.47134741     0.11300
H546        H  0.13431504  0.78567648  0.01008895     0.11500
H547        H  0.16276257  0.81469750  0.01083885     0.07800
C548        C  0.20180464  0.83348917  0.98433291    -0.11300
C549        C  0.21845569  0.84968421  0.98562387    -0.10600
C550        C  0.23991829  0.84419176  0.99548333    -0.01500
C551        C  0.24435736  0.82218275  0.50399623    -0.11700
C552        C  0.22777570  0.80601754  0.50263508    -0.10100
H553        H  0.18546937  0.83813377  0.97636351     0.07800
H554        H  0.21455830  0.86647958  0.97882912     0.11500
H555        H  0.26071375  0.81745873  0.51181767     0.11300
H556        H  0.23171542  0.78929338  0.50970313     0.07800
C557        C  0.30100461  0.04337304  0.02031775    -0.11300
C558        C  0.28387347  0.03176360  0.50547063     0.05900
C559        C  0.26681325  0.04403265  0.49150139    -0.10000
C560        C  0.26730976  0.06730167  0.49149793    -0.11700
C561        C  0.28485420  0.07876071  0.50550712    -0.01500
C562        C  0.30150154  0.06652295  0.02026558    -0.10600
C563        C  0.28434874  0.00703557  0.50396652     0.05900
H564        H  0.25342080  0.03564581  0.47980405     0.07800
H565        H  0.25422038  0.07630405  0.48004493     0.11300
H566        H  0.31510241  0.07484983  0.03160848     0.11500
H567        H  0.31411761  0.03452618  0.03195451     0.07800
C568        C  0.30457836  0.99585766  0.99920871    -0.11300
C569        C  0.30535187  0.97271657  0.99804765    -0.10600
C570        C  0.28591433  0.96005464  0.50169522    -0.01500
C571        C  0.26566132  0.97114116  0.50637072    -0.11700
C572        C  0.26487251  0.99438604  0.50742167    -0.10100
H573        H  0.31984957  0.00502795  0.99599452     0.07800
H574        H  0.32122169  0.96471044  0.99434165     0.11500
H575        H  0.25044538  0.96184092  0.50936544     0.11300
H576        H  0.24907999  0.00244816  0.51145719     0.07800
C577        C  0.00259320  0.64042628  0.38642045    -0.11300
C578        C  0.99214251  0.65616097  0.36769786     0.05900
C579        C  0.00512515  0.66868076  0.34726325    -0.10000
C580        C  0.02814697  0.66574161  0.34600189    -0.11700
C581        C  0.03852479  0.65017517  0.36505125    -0.01500
C582        C  0.02551267  0.63747278  0.38511638    -0.10600
C583        C  0.96773652  0.65905395  0.36943131     0.05900
H584        H  0.99752772  0.68098623  0.33266024     0.07800
H585        H  0.03784178  0.67579152  0.33037921     0.11300
H586        H  0.03306788  0.62530881  0.39999490     0.11500
H587        H  0.99299349  0.63019910  0.40193435     0.07800
C588        C  0.95501838  0.66118683  0.34268936    -0.11300
C589        C  0.93183500  0.66148234  0.34438539    -0.10600
C590        C  0.92105345  0.65951633  0.37281566    -0.01500
C591        C  0.93374899  0.65849391  0.39959979    -0.11700
C592        C  0.95685225  0.65837696  0.39794164    -0.10100
H593        H  0.96294549  0.66164668  0.32040499     0.07800
H594        H  0.92236130  0.66227016  0.32340402     0.11500
H595        H  0.92580838  0.65726984  0.42182914     0.11300
H596        H  0.96622302  0.65728826  0.41897836     0.07800
C597        C  0.84567633  0.49723401  0.40426639    -0.11300
C598        C  0.85099505  0.50936724  0.37774831     0.05900
C599        C  0.85664699  0.49776869  0.35088213    -0.10000
C600        C  0.85774051  0.47466338  0.35079329    -0.11700
C601        C  0.85302799  0.46260788  0.37749056    -0.01500
C602        C  0.84662367  0.47406154  0.40410256    -0.10600
C603        C  0.85130656  0.53400519  0.37817215     0.05900
H604        H  0.86029353  0.50657797  0.32988160     0.07800
H605        H  0.86235118  0.46622634  0.32980960     0.11300
H606        H  0.84280113  0.46513360  0.42495393     0.11500
H607        H  0.84137719  0.50565912  0.42537070     0.07800
C608        C  0.83500717  0.54609714  0.39416939    -0.11300
C609        C  0.83538946  0.56928350  0.39427989    -0.10600
C610        C  0.85206531  0.58083366  0.37840874    -0.01500
C611        C  0.86842620  0.56878370  0.36259144    -0.11700
C612        C  0.86808155  0.54564665  0.36252988    -0.10100
H613        H  0.82175790  0.53764230  0.40621241     0.07800
H614        H  0.82255118  0.57817670  0.40662078     0.11500
H615        H  0.88157113  0.57724863  0.35032329     0.11300
H616        H  0.88112952  0.53685400  0.35048161     0.07800
C617        C  0.11397295  0.54073769  0.34181489    -0.11300
C618        C  0.11556721  0.52896205  0.36948060     0.05900
C619        C  0.11643272  0.54096335  0.39712159    -0.10000
C620        C  0.11544110  0.56414427  0.39705521    -0.11700
C621        C  0.11327838  0.57574160  0.36940400    -0.01500
C622        C  0.11268418  0.56382898  0.34180457    -0.10600
C623        C  0.11582209  0.50429075  0.36937142     0.05900
H624        H  0.11737071  0.53243965  0.41886103     0.07800
H625        H  0.11583394  0.57296624  0.41865491     0.11300
H626        H  0.11127170  0.57238933  0.32012686     0.11500
H627        H  0.11378293  0.53211020  0.32006723     0.07800
C628        C  0.10272336  0.49244453  0.34840022    -0.11300
C629        C  0.10274965  0.46932362  0.34822070    -0.10600
C630        C  0.11571402  0.45744277  0.36916422    -0.01500
C631        C  0.12889039  0.46915305  0.39009293    -0.11700
C632        C  0.12897136  0.49235213  0.39017124    -0.10100
H633        H  0.09208374  0.50103233  0.33243328     0.07800
H634        H  0.09231462  0.46073652  0.33193734     0.11500
H635        H  0.13907102  0.46038605  0.40645460     0.11300
H636        H  0.13948321  0.50093072  0.40634841     0.07800
C637        C  0.00814654  0.39954789  0.39232828    -0.11300
C638        C  0.99652805  0.38409856  0.37449198     0.05900
C639        C  0.00843856  0.36914165  0.35602690    -0.10000
C640        C  0.03159852  0.36971145  0.35533545    -0.11700
C641        C  0.04314526  0.38522701  0.37312948    -0.01500
C642        C  0.03124479  0.40007157  0.39170404    -0.10600
C643        C  0.97203169  0.38403326  0.37475996     0.05900
H644        H  0.99983199  0.35695138  0.34228168     0.07800
H645        H  0.04046124  0.35803194  0.34094621     0.11300
H646        H  0.03978670  0.41229449  0.40548027     0.11500
H647        H  0.99934164  0.41149041  0.40636931     0.07800
C648        C  0.96035271  0.38637145  0.40247038    -0.11300
C649        C  0.93726242  0.38782868  0.40255584    -0.10600
C650        C  0.92547210  0.38685926  0.37494752    -0.01500
C651        C  0.93706253  0.38383040  0.34733997    -0.11700
C652        C  0.96018237  0.38250799  0.34722841    -0.10100
H653        H  0.96910675  0.38721377  0.42404296     0.07800
H654        H  0.92863755  0.38987009  0.42418692     0.11500
H655        H  0.92829338  0.38306180  0.32578161     0.11300
H656        H  0.96882916  0.38091977  0.32554764     0.07800
C657        C  0.62316590  0.99504226  0.35310146    -0.11300
C658        C  0.61524147  0.00772898  0.37790526     0.05900
C659        C  0.60739629  0.99670323  0.40416177    -0.10000
C660        C  0.60664775  0.97364647  0.40513963    -0.11700
C661        C  0.61410614  0.96106763  0.38014150    -0.01500
C662        C  0.62273872  0.97189848  0.35430773    -0.10600
C663        C  0.61455657  0.03231665  0.37632735     0.05900
H664        H  0.60177786  0.00588175  0.42403949     0.07800
H665        H  0.60020526  0.96565039  0.42550250     0.11300
H666        H  0.62858406  0.96249686  0.33473576     0.11500
H667        H  0.62912298  0.00295120  0.33242182     0.07800
C668        C  0.63129948  0.04435455  0.36114252    -0.11300
C669        C  0.63061915  0.06752165  0.36031971    -0.10600
C670        C  0.61337241  0.07904327  0.37502193    -0.01500
C671        C  0.59651823  0.06706527  0.38978462    -0.11700
C672        C  0.59699782  0.04399275  0.39022171    -0.10100
H673        H  0.64517169  0.03593252  0.35044897     0.07800
H674        H  0.64382442  0.07642920  0.34880567     0.11500
H675        H  0.58286713  0.07555378  0.40096166     0.11300
H676        H  0.58347942  0.03531641  0.40134489     0.07800
C677        C  0.45875127  0.89629140  0.36259606    -0.11300
C678        C  0.46958379  0.87911690  0.37813385     0.05900
C679        C  0.45676378  0.86289234  0.39311220    -0.10000
C680        C  0.43349990  0.86392922  0.39245484    -0.11700
C681        C  0.42282331  0.88122457  0.37686098    -0.01500
C682        C  0.43571127  0.89729570  0.36190237    -0.10600
C683        C  0.49418019  0.87887361  0.37902720     0.05900
H684        H  0.46472600  0.84940979  0.40514052     0.07800
H685        H  0.42390493  0.85129886  0.40408929     0.11300
H686        H  0.42797425  0.91092706  0.34989780     0.11500
H687        H  0.46813364  0.90927863  0.35138835     0.07800
C688        C  0.50643361  0.88427295  0.35262257    -0.11300
C689        C  0.52939972  0.88679921  0.35397434    -0.10600
C690        C  0.54067658  0.88373729  0.38167415    -0.01500
C691        C  0.52863687  0.87742128  0.40784897    -0.11700
C692        C  0.50553775  0.87505691  0.40655577    -0.10100
H693        H  0.49817233  0.88691596  0.33096726     0.07800
H694        H  0.53833185  0.89131769  0.33333392     0.11500
H695        H  0.53699797  0.87490257  0.42945311     0.11300
H696        H  0.49648978  0.87105963  0.42729827     0.07800
C697        C  0.46037891  0.16201927  0.40568968    -0.11300
C698        C  0.47213159  0.16015563  0.37791574     0.05900
C699        C  0.46022944  0.15722965  0.35060801    -0.10000
C700        C  0.43724795  0.15474252  0.35125535    -0.11700
C701        C  0.42565336  0.15550140  0.37914767    -0.01500
C702        C  0.43728243  0.15981637  0.40627029    -0.10600
C703        C  0.49670977  0.15926890  0.37756570     0.05900
H704        H  0.46875837  0.15633321  0.32876417     0.07800
H705        H  0.42857343  0.15190481  0.32994427     0.11300
H706        H  0.42863245  0.16061740  0.42802800     0.11500
H707        H  0.46908786  0.16415381  0.42711279     0.07800
C708        C  0.50946057  0.17287229  0.39685348    -0.11300
C709        C  0.53260476  0.17092137  0.39724087    -0.10600
C710        C  0.54330186  0.15539802  0.37828426    -0.01500
C711        C  0.53057144  0.14198360  0.35890062    -0.11700
C712        C  0.50756474  0.14383728  0.35861686    -0.10100
H713        H  0.50155322  0.18501302  0.41155410     0.07800
H714        H  0.54211084  0.18151815  0.41230882     0.11500
H715        H  0.53838261  0.12977964  0.34418465     0.11300
H716        H  0.49823184  0.13275327  0.34402780     0.07800
C717        C  0.35901754  0.04027957  0.40147566    -0.11300
C718        C  0.35491126  0.02890461  0.37397046     0.05900
C719        C  0.35149425  0.04120475  0.34707492    -0.10000
C720        C  0.35221287  0.06436673  0.34771995    -0.11700
C721        C  0.35652449  0.07561625  0.37520905    -0.01500
C722        C  0.35990854  0.06336521  0.40205240    -0.10600
C723        C  0.35438394  0.00431343  0.37350178     0.05900
H724        H  0.34857695  0.03292452  0.32546406     0.07800
H725        H  0.34960797  0.07346235  0.32668864     0.11300
H726        H  0.36305138  0.07164403  0.42361421     0.11500
H727        H  0.36130323  0.03133666  0.42269481     0.07800
C728        C  0.36951027  0.99214492  0.39117055    -0.11300
C729        C  0.36888335  0.96906213  0.39135126    -0.10600
C730        C  0.35322289  0.95758428  0.37372185    -0.01500
C731        C  0.33817944  0.96962473  0.35582000    -0.11700
C732        C  0.33872611  0.99280205  0.35575099    -0.10100
H733        H  0.38203643  0.00046702  0.40464240     0.07800
H734        H  0.38082525  0.96018499  0.40514452     0.11500
H735        H  0.32594384  0.96114179  0.34202096     0.11300
H736        H  0.32669013  0.00170895  0.34217543     0.07800
C737        C  0.80749362  0.49568000  0.24313891    -0.11300
C738        C  0.78797690  0.50744033  0.25025129     0.05900
C739        C  0.76858135  0.49533162  0.25689156    -0.10000
C740        C  0.76882495  0.47208852  0.25703045    -0.11700
C741        C  0.78842188  0.46041537  0.25033312    -0.01500
C742        C  0.80769299  0.47248477  0.24309233    -0.10600
C743        C  0.78800785  0.53218825  0.25113734     0.05900
H744        H  0.75331011  0.50383286  0.26267896     0.07800
H745        H  0.75370997  0.46324929  0.26260302     0.11300
H746        H  0.82304027  0.46398521  0.23765247     0.11500
H747        H  0.82263100  0.50442677  0.23740304     0.07800
C748        C  0.80611033  0.54377669  0.26358301    -0.11300
C749        C  0.80632697  0.56696145  0.26421491    -0.10600
C750        C  0.78848258  0.57919601  0.25234277    -0.01500
C751        C  0.77030502  0.56769795  0.24009550    -0.11700
C752        C  0.77004251  0.54446104  0.23956345    -0.10100
H753        H  0.82005795  0.53489955  0.27316134     0.07800
H754        H  0.82055212  0.57532542  0.27393881     0.11500
H755        H  0.75633450  0.57667104  0.23075292     0.11300
H756        H  0.75592809  0.53609263  0.22957619     0.07800
C757        C  0.69380114  0.76580633  0.25979743    -0.11300
C758        C  0.68798039  0.74320686  0.25943909     0.05900
C759        C  0.66527432  0.73762116  0.26011260    -0.10000
C760        C  0.64896227  0.75417627  0.26082485    -0.11700
C761        C  0.65497787  0.77665132  0.26059345    -0.01500
C762        C  0.67754030  0.78226407  0.26005791    -0.10600
C763        C  0.70560921  0.72577988  0.25784678     0.05900
H764        H  0.66002632  0.72049205  0.25945246     0.07800
H765        H  0.63164524  0.74939095  0.26119162     0.11300
H766        H  0.68267994  0.79945339  0.26008385     0.11500
H767        H  0.71099343  0.77092932  0.26021244     0.07800
C768        C  0.72572495  0.73004395  0.24242549    -0.11300
C769        C  0.74255447  0.71419090  0.24134537    -0.10600
C770        C  0.73968067  0.69343297  0.25515441    -0.01500
C771        C  0.71956732  0.68884847  0.27023464    -0.11700
C772        C  0.70273501  0.70487730  0.27167810    -0.10100
H773        H  0.72848868  0.74557671  0.23070927     0.07800
H774        H  0.75784133  0.71818586  0.22945133     0.11500
H775        H  0.71694360  0.67297912  0.28118766     0.11300
H776        H  0.68767484  0.70098340  0.28412667     0.07800
C777        C  0.50327879  0.81821286  0.28536707    -0.11300
C778        C  0.49266572  0.81126433  0.25834168     0.05900
C779        C  0.50593351  0.80476132  0.23327922    -0.10000
C780        C  0.52908551  0.80613688  0.23470835    -0.11700
C781        C  0.53956678  0.81390640  0.26128763    -0.01500
C782        C  0.52645591  0.81945507  0.28683904    -0.10600
C783        C  0.46795019  0.81183955  0.25579200     0.05900
H784        H  0.49841234  0.79884109  0.21234609     0.07800
H785        H  0.53877733  0.80155562  0.21473528     0.11300
H786        H  0.53407909  0.82551560  0.30764097     0.11500
H787        H  0.49367901  0.82356479  0.30503907     0.07800
C788        C  0.45427958  0.80672466  0.28103525    -0.11300
C789        C  0.43114209  0.80833726  0.27889693    -0.10600
C790        C  0.42110182  0.81497067  0.25143144    -0.01500
C791        C  0.43467389  0.81980207  0.22608496    -0.11700
C792        C  0.45778793  0.81831434  0.22824847    -0.10100
H793        H  0.46144901  0.80143558  0.30249241     0.07800
H794        H  0.42110495  0.80454636  0.29883823     0.11500
H795        H  0.42743836  0.82518486  0.20469773     0.11300
H796        H  0.46770960  0.82283843  0.20850620     0.07800
C797        C  0.26118000  0.70256887  0.22852089    -0.11300
C798        C  0.25698162  0.72419750  0.23913141     0.05900
C799        C  0.23589114  0.72916627  0.25119593    -0.10000
C800        C  0.21940021  0.71299837  0.25252176    -0.11700
C801        C  0.22359030  0.69144004  0.24191119    -0.01500
C802        C  0.24461865  0.68633632  0.22988829    -0.10600
C803        C  0.27448257  0.74154234  0.23823588     0.05900
H804        H  0.23219516  0.74549968  0.26011851     0.07800
H805        H  0.20332747  0.71740504  0.26190746     0.11300
H806        H  0.24822358  0.66984979  0.22142854     0.11500
H807        H  0.27716746  0.69826161  0.21881116     0.07800
C808        C  0.29668322  0.73639566  0.24508237    -0.11300
C809        C  0.31277546  0.75309055  0.24621544    -0.10600
C810        C  0.30694263  0.77523285  0.24068089    -0.01500
C811        C  0.28491066  0.78031026  0.23315543    -0.11700
C812        C  0.26890380  0.76365388  0.23175582    -0.10100
H813        H  0.30150321  0.71957838  0.25046804     0.07800
H814        H  0.32967237  0.74874693  0.25203793     0.11500
H815        H  0.28000669  0.79721791  0.22842252     0.11300
H816        H  0.25208859  0.76813597  0.22571067     0.07800
C817        C  0.19527677  0.54191513  0.25407401    -0.11300
C818        C  0.17602590  0.52977069  0.24696307     0.05900
C819        C  0.15665842  0.54143675  0.23928224    -0.10000
C820        C  0.15649653  0.56459059  0.23871976    -0.11700
C821        C  0.17566510  0.57675538  0.24593425    -0.01500
C822        C  0.19507749  0.56517816  0.25367010    -0.10600
C823        C  0.17597076  0.50505916  0.24738576     0.05900
H824        H  0.14164406  0.53262404  0.23326046     0.07800
H825        H  0.14128281  0.57299308  0.23255290     0.11300
H826        H  0.21008895  0.57409784  0.25938925     0.11500
H827        H  0.21041108  0.53341459  0.26033253     0.07800
C828        C  0.19370896  0.49287893  0.23475931    -0.11300
C829        C  0.19312039  0.46965079  0.23409234    -0.10600
C830        C  0.17487451  0.45811011  0.24626760    -0.01500
C831        C  0.15731452  0.47026481  0.25932419    -0.11700
C832        C  0.15782537  0.49343384  0.25979599    -0.10100
H833        H  0.20782231  0.50133675  0.22477308     0.07800
H834        H  0.20688160  0.46072465  0.22387913     0.11500
H835        H  0.14305019  0.46185961  0.26900859     0.11300
H836        H  0.14402781  0.50228381  0.27005546     0.07800
C837        C  0.69296747  0.27477418  0.24121522    -0.11300
C838        C  0.68766343  0.29626906  0.25126029     0.05900
C839        C  0.66581417  0.30066454  0.26102773    -0.10000
C840        C  0.64978997  0.28376888  0.26127688    -0.11700
C841        C  0.65526613  0.26223436  0.25146701    -0.01500
C842        C  0.67699136  0.25800784  0.24127625    -0.10600
C843        C  0.70519455  0.31365698  0.25224904     0.05900
H844        H  0.66126497  0.31702085  0.26909828     0.07800
H845        H  0.63316580  0.28751908  0.26923690     0.11300
H846        H  0.68171915  0.24163683  0.23346187     0.11500
H847        H  0.70954080  0.27091830  0.23314618     0.07800
C848        C  0.72648013  0.30836951  0.26303137    -0.11300
C849        C  0.74329966  0.32427312  0.26348612    -0.10600
C850        C  0.73931348  0.34592251  0.25319293    -0.01500
C851        C  0.71803197  0.35135704  0.24246163    -0.11700
C852        C  0.70109423  0.33538760  0.24210629    -0.10100
H853        H  0.73010470  0.29188790  0.27138107     0.07800
H854        H  0.75949674  0.31957399  0.27192323     0.11500
H855        H  0.71451898  0.36789666  0.23423421     0.11300
H856        H  0.68492068  0.33990303  0.23340823     0.07800
C857        C  0.23505452  0.30593520  0.23866701    -0.11300
C858        C  0.25643422  0.31203693  0.24824779     0.05900
C859        C  0.26077179  0.33444772  0.25466477    -0.10000
C860        C  0.24391476  0.35029910  0.25233409    -0.11700
C861        C  0.22246535  0.34405429  0.24331878    -0.01500
C862        C  0.21827307  0.32177021  0.23618709    -0.10600
C863        C  0.27394324  0.29493690  0.25195356     0.05900
H864        H  0.27704770  0.33962420  0.26225483     0.07800
H865        H  0.24758438  0.36738358  0.25796746     0.11300
H866        H  0.20190393  0.31649789  0.22909028     0.11500
H867        H  0.23130429  0.28886737  0.23304486     0.07800
C868        C  0.26877945  0.27436569  0.26522483    -0.11300
C869        C  0.28492803  0.25787415  0.26773331    -0.10600
C870        C  0.30657790  0.26152433  0.25685778    -0.01500
C871        C  0.31194263  0.28225480  0.24426836    -0.11700
C872        C  0.29579372  0.29883607  0.24192259    -0.10100
H873        H  0.25220257  0.27101483  0.27369051     0.07800
H874        H  0.28034758  0.24210058  0.27769915     0.11500
H875        H  0.32853074  0.28552939  0.23579440     0.11300
H876        H  0.30024536  0.31448739  0.23149890     0.07800
C877        C  0.45591013  0.23530482  0.26619761    -0.11300
C878        C  0.46842726  0.21608726  0.26009303     0.05900
C879        C  0.45710399  0.19627063  0.25375658    -0.10000
C880        C  0.43392115  0.19564833  0.25335249    -0.11700
C881        C  0.42136249  0.21477473  0.25952396    -0.01500
C882        C  0.43259411  0.23462550  0.26610645    -0.10600
C883        C  0.49318352  0.21645644  0.26009767     0.05900
H884        H  0.46622264  0.18124739  0.24861894     0.07800
H885        H  0.42580304  0.18009178  0.24817452     0.11300
H886        H  0.42336850  0.24962036  0.27101306     0.11500
H887        H  0.46416832  0.25078316  0.27138082     0.07800
C888        C  0.50506559  0.23339249  0.24516603    -0.11300
C889        C  0.52835317  0.23286865  0.24374473    -0.10600
C890        C  0.54022856  0.21547760  0.25740698    -0.01500
C891        C  0.52833841  0.19881886  0.27285756    -0.11700
C892        C  0.50514239  0.19927980  0.27414013    -0.10100
H893        H  0.49631454  0.24673795  0.23391657     0.07800
H894        H  0.53704681  0.24591588  0.23166188     0.11500
H895        H  0.53697481  0.18526350  0.28381456     0.11300
H896        H  0.49651689  0.18614576  0.28615757     0.07800
C897        C  0.61629736  0.04085178  0.15764506    -0.11300
C898        C  0.61634044  0.02917350  0.12972123     0.05900
C899        C  0.61526921  0.04116136  0.10221279    -0.10000
C900        C  0.61337998  0.06417365  0.10261047    -0.11700
C901        C  0.61284482  0.07574952  0.13048146    -0.01500
C902        C  0.61472235  0.06396837  0.15800172    -0.10600
C903        C  0.61650302  0.00458619  0.12922448     0.05900
H904        H  0.61579487  0.03275372  0.08030766     0.07800
H905        H  0.61229088  0.07292886  0.08104655     0.11300
H906        H  0.61434193  0.07256583  0.17977772     0.11500
H907        H  0.61681932  0.03211518  0.17924877     0.07800
C908        C  0.62887570  0.99246711  0.15068788    -0.11300
C909        C  0.62797066  0.96933135  0.15105729    -0.10600
C910        C  0.61472247  0.95793226  0.12993190    -0.01500
C911        C  0.60283222  0.96996199  0.10798855    -0.11700
C912        C  0.60364294  0.99302540  0.10769581    -0.10100
H913        H  0.63922366  0.00086191  0.16724367     0.07800
H914        H  0.63737325  0.96039258  0.16811508     0.11500
H915        H  0.59246774  0.96156670  0.09142707     0.11300
H916        H  0.59363982  0.00179889  0.09114752     0.07800
C917        C  0.45552577  0.88762521  0.09812740    -0.11300
C918        C  0.46702688  0.88940061  0.12597844     0.05900
C919        C  0.45482917  0.89144245  0.15333542    -0.10000
C920        C  0.43172090  0.89225145  0.15282874    -0.11700
C921        C  0.42027133  0.89078671  0.12500925    -0.01500
C922        C  0.43232540  0.88820922  0.09766948    -0.10600
C923        C  0.49163516  0.88945935  0.12666938     0.05900
H924        H  0.46314989  0.89232735  0.17521870     0.07800
H925        H  0.42279084  0.89395001  0.17428033     0.11300
H926        H  0.42383787  0.88705406  0.07592651     0.11500
H927        H  0.46445496  0.88624694  0.07664705     0.07800
C928        C  0.50401244  0.87542869  0.10734947    -0.11300
C929        C  0.52718837  0.87530355  0.10858790    -0.10600
C930        C  0.53836549  0.88915966  0.12920866    -0.01500
C931        C  0.52604330  0.90333412  0.14827936    -0.11700
C932        C  0.50294213  0.90352349  0.14697739    -0.10100
H933        H  0.49577849  0.86425967  0.09166787     0.07800
H934        H  0.53634307  0.86426107  0.09360193     0.11500
H935        H  0.53426289  0.91434488  0.16420956     0.11300
H936        H  0.49393244  0.91485095  0.16171793     0.07800
C937        C  0.50132997  0.14287273  0.15105373    -0.11300
C938        C  0.48985534  0.14921182  0.12454496     0.05900
C939        C  0.50210145  0.15501011  0.09823841    -0.10000
C940        C  0.52532732  0.15410315  0.09841815    -0.11700
C941        C  0.53662059  0.14725864  0.12482770    -0.01500
C942        C  0.52439888  0.14175249  0.15111636    -0.10600
C943        C  0.46522203  0.14921626  0.12454644     0.05900
H944        H  0.49374416  0.15979239  0.07738179     0.07800
H945        H  0.53442061  0.15845165  0.07784727     0.11300
H946        H  0.53269169  0.13668556  0.17190255     0.11500
H947        H  0.49246719  0.13884330  0.17192959     0.07800
C948        C  0.45356910  0.13257083  0.14033807    -0.11300
C949        C  0.43047566  0.13273861  0.14153817    -0.10600
C950        C  0.41844349  0.14934661  0.12658641    -0.01500
C951        C  0.42993027  0.16584991  0.11034940    -0.11700
C952        C  0.45315056  0.16583222  0.10941434    -0.10100
H953        H  0.46230719  0.11924366  0.15164024     0.07800
H954        H  0.42201482  0.11968729  0.15394578     0.11500
H955        H  0.42097667  0.17886611  0.09866388     0.11300
H956        H  0.46163940  0.17900661  0.09732061     0.07800
C957        C  0.33919524  0.99598597  0.09914222    -0.11300
C958        C  0.33925309  0.00823905  0.12656507     0.05900
C959        C  0.34082645  0.99678561  0.15453997    -0.10000
C960        C  0.34274773  0.97370153  0.15499498    -0.11700
C961        C  0.34351809  0.96171280  0.12750231    -0.01500
C962        C  0.34154566  0.97299834  0.09960844    -0.10600
C963        C  0.33889917  0.03287804  0.12585506     0.05900
H964        H  0.34125529  0.00567968  0.17605992     0.07800
H965        H  0.34429777  0.96529358  0.17676747     0.11300
H966        H  0.34175455  0.96402192  0.07811537     0.11500
H967        H  0.33746682  0.00416419  0.07724281     0.07800
C968        C  0.35039897  0.04437339  0.10272675    -0.11300
C969        C  0.35141896  0.06746393  0.10297684    -0.10600
C970        C  0.34114568  0.07964404  0.12648840    -0.01500
C971        C  0.32910145  0.06830678  0.14915181    -0.11700
C972        C  0.32794677  0.04514656  0.14881095    -0.10100
H973        H  0.35930024  0.03553831  0.08493022     0.07800
H974        H  0.36078257  0.07576209  0.08515161     0.11500
H975        H  0.32086119  0.07731862  0.16739433     0.11300
H976        H  0.31859228  0.03685736  0.16663435     0.07800
C977        C  0.00687894  0.65582160  0.15562249    -0.11300
C978        C  0.99462907  0.66013803  0.12896868     0.05900
C979        C  0.00601306  0.66529001  0.10174750    -0.10000
C980        C  0.02914515  0.66488247  0.10076966    -0.11700
C981        C  0.04132060  0.65957887  0.12706259    -0.01500
C982        C  0.03006419  0.65564734  0.15470216    -0.10600
C983        C  0.97017018  0.65771087  0.12898305     0.05900
H984        H  0.99700880  0.66912843  0.08102156     0.07800
H985        H  0.03751150  0.66823630  0.07926544     0.11300
H986        H  0.03914369  0.65142200  0.17521748     0.11500
H987        H  0.99855040  0.65160666  0.17684246     0.07800
C988        C  0.95964171  0.64677542  0.10462034    -0.11300
C989        C  0.93674608  0.64348089  0.10499710    -0.10600
C990        C  0.92388498  0.65108813  0.12970408    -0.01500
C991        C  0.93430837  0.66217105  0.15400163    -0.11700
C992        C  0.95727374  0.66541060  0.15368082    -0.10100
H993        H  0.96918193  0.64033700  0.08551410     0.07800
H994        H  0.92910981  0.63495307  0.08592431     0.11500
H995        H  0.92471359  0.66834550  0.17322558     0.11300
H996        H  0.96493615  0.67404179  0.17263851     0.07800
C997        C  0.83134353  0.49285850  0.10568773    -0.11300
C998        C  0.84746091  0.50499445  0.12173588     0.05900
C999        C  0.86407071  0.49343044  0.13758910    -0.10000
C1000       C  0.86435479  0.47030214  0.13785443    -0.11700
C1001       C  0.84807183  0.45816836  0.12220769    -0.01500
C1002       C  0.83164099  0.46965159  0.10594397    -0.10600
C1003       C  0.84696331  0.52960573  0.12244579     0.05900
H1004       H  0.87696483  0.50229682  0.14968711     0.07800
H1005       H  0.87736815  0.46190669  0.15031760     0.11300
H1006       H  0.81891325  0.46069568  0.09364350     0.11500
H1007       H  0.81826938  0.50130659  0.09343553     0.07800
C1008       C  0.84260916  0.54197392  0.09585841    -0.11300
C1009       C  0.84347941  0.56517360  0.09652696    -0.10600
C1010       C  0.84876077  0.57634913  0.12377793    -0.01500
C1011       C  0.85233893  0.56401083  0.15050135    -0.11700
C1012       C  0.85143087  0.54092874  0.14985748    -0.10100
H1013       H  0.83917490  0.53370189  0.07438393     0.07800
H1014       H  0.84055912  0.57432259  0.07562477     0.11500
H1015       H  0.85610439  0.57220377  0.17193186     0.11300
H1016       H  0.85433168  0.53189929  0.17086136     0.07800
C1017       C  0.09350594  0.54561558  0.13896089    -0.11300
C1018       C  0.10855466  0.53367585  0.12058519     0.05900
C1019       C  0.12370351  0.54540099  0.10218812    -0.10000
C1020       C  0.12361050  0.56853433  0.10186195    -0.11700
C1021       C  0.10843551  0.58039417  0.12000492    -0.01500
C1022       C  0.09349921  0.56874296  0.13874466    -0.10600
C1023       C  0.10821704  0.50910285  0.12035160     0.05900
H1024       H  0.13575439  0.53669341  0.08819519     0.07800
H1025       H  0.13544953  0.57714342  0.08745174     0.11300
H1026       H  0.08163722  0.57750393  0.15299586     0.11500
H1027       H  0.08143336  0.53709008  0.15308623     0.07800
C1028       C  0.10443270  0.49727091  0.14755816    -0.11300
C1029       C  0.10337643  0.47419050  0.14722270    -0.10600
C1030       C  0.10634500  0.46245284  0.11975475    -0.01500
C1031       C  0.11046882  0.47415317  0.09260571    -0.11700
C1032       C  0.11129112  0.49728540  0.09286483    -0.10100
H1033       H  0.10242621  0.50584959  0.16918329     0.07800
H1034       H  0.10041661  0.46550983  0.16853184     0.11500
H1035       H  0.11274637  0.46543729  0.07112451     0.11300
H1036       H  0.11392936  0.50592453  0.07145789     0.07800
C1037       C  0.00189808  0.38011535  0.09127430    -0.11300
C1038       C  0.98945874  0.38021619  0.11861433     0.05900
C1039       C  0.00067298  0.38244147  0.14662894    -0.10000
C1040       C  0.02370820  0.38477509  0.14728141    -0.11700
C1041       C  0.03596376  0.38525199  0.11994569    -0.01500
C1042       C  0.02490503  0.38277638  0.09193180    -0.10600
C1043       C  0.96484132  0.37917147  0.11792520     0.05900
H1044       H  0.99161129  0.38300593  0.16806832     0.07800
H1045       H  0.03188140  0.38673126  0.16915055     0.11300
H1046       H  0.03405353  0.38283654  0.07052568     0.11500
H1047       H  0.99386560  0.37801097  0.06933657     0.07800
C1048       C  0.95305863  0.39018222  0.09479854    -0.11300
C1049       C  0.92994866  0.39084801  0.09540906    -0.10600
C1050       C  0.91807944  0.38067282  0.11925186    -0.01500
C1051       C  0.92968612  0.36896814  0.14180609    -0.11700
C1052       C  0.95287008  0.36818893  0.14112149    -0.10100
H1053       H  0.96167684  0.39904108  0.07680032     0.07800
H1054       H  0.92139222  0.39990675  0.07762941     0.11500
H1055       H  0.92088433  0.36082042  0.16029419     0.11300
H1056       H  0.96141980  0.35917618  0.15893104     0.07800
In1057     In  0.10382206  0.39419938  0.62101593     1.36900
C1058       C  0.13244866  0.38661169  0.66552825     0.77100
O1059       O  0.10657259  0.35962651  0.60238486    -0.61300
O1060       O  0.11760343  0.38662403  0.57487506    -0.52200
C1061       C  0.06014654  0.38856998  0.62058837     0.69800
O1062       O  0.07155003  0.38648298  0.64457322    -0.47100
C1063       C  0.10521128  0.43810246  0.61972994     0.74500
O1064       O  0.11264775  0.37991411  0.66659498    -0.58900
O1065       O  0.11198836  0.42635529  0.59768038    -0.49000
O1066       O  0.13809307  0.39572023  0.64076545    -0.55400
C1067       C  0.11362408  0.36616304  0.57671608     0.84700
O1068       O  0.07110549  0.39377188  0.59707605    -0.57300
O1069       O  0.09750850  0.42733199  0.64203523    -0.60500
In1070     In  0.85038795  0.38953992  0.62367850     1.36900
C1071       C  0.84249235  0.36256421  0.57723691     0.77100
O1072       O  0.88330667  0.39487935  0.60192222    -0.61300
O1073       O  0.88197654  0.37483089  0.64188426    -0.52200
C1074       C  0.84847102  0.43368724  0.62282196     0.69800
O1075       O  0.83554063  0.42171909  0.60725773    -0.47100
C1076       C  0.82481874  0.38286388  0.67212695     0.74500
O1077       O  0.83939374  0.38316831  0.57570718    -0.58900
O1078       O  0.84547899  0.37984388  0.67247867    -0.49000
O1079       O  0.84709233  0.35538333  0.60350396    -0.55400
C1080       C  0.89381358  0.38333918  0.62102919     0.84700
O1081       O  0.86202471  0.42299991  0.63897605    -0.57300
O1082       O  0.81684790  0.38753851  0.64632241    -0.60500
In1083     In  0.10866194  0.64887898  0.62006767     1.36900
C1084       C  0.11657203  0.67455134  0.57218890     0.77100
O1085       O  0.07493531  0.65214118  0.59982378    -0.61300
O1086       O  0.07816557  0.65701667  0.64780635    -0.52200
C1087       C  0.10824305  0.60480382  0.61956321     0.69800
O1088       O  0.12020502  0.61606044  0.60164898    -0.47100
C1089       C  0.13829281  0.65518382  0.66364755     0.74500
O1090       O  0.11786066  0.65373087  0.57101300    -0.58900
O1091       O  0.11955605  0.66443647  0.66406298    -0.49000
O1092       O  0.11319710  0.68247192  0.59854443    -0.55400
C1093       C  0.06544538  0.65640847  0.62491589     0.84700
O1094       O  0.09619512  0.61614364  0.63723159    -0.57300
O1095       O  0.14281222  0.64477322  0.63945377    -0.60500
In1096     In  0.85578058  0.64448301  0.62739640     1.36900
C1097       C  0.82820914  0.65255927  0.67341830     0.77100
O1098       O  0.85798605  0.67862591  0.60731763    -0.61300
O1099       O  0.84163431  0.65355944  0.58183231    -0.52200
C1100       C  0.89960775  0.64799377  0.62956809     0.69800
O1101       O  0.88708637  0.65556079  0.65028592    -0.47100
C1102       C  0.85118771  0.60069193  0.62457605     0.74500
O1103       O  0.84857157  0.65703555  0.67453652    -0.58900
O1104       O  0.84599746  0.61317157  0.60258982    -0.49000
O1105       O  0.82146189  0.64582359  0.64779853    -0.55400
C1106       C  0.84890406  0.67309801  0.58260591     0.84700
O1107       O  0.88966893  0.63797679  0.60830914    -0.57300
O1108       O  0.85891783  0.61068154  0.64753318    -0.60500
In1109     In  0.35000283  0.14763067  0.62981109     1.36900
C1110       C  0.34418510  0.17439569  0.67765779     0.77100
O1111       O  0.38339138  0.13654746  0.64567071    -0.61300
O1112       O  0.38205488  0.16112326  0.61105149    -0.52200
C1113       C  0.34383933  0.10396541  0.62778801     0.69800
O1114       O  0.33601322  0.11587367  0.64907965    -0.47100
C1115       C  0.32375740  0.15667990  0.58307825     0.74500
O1116       O  0.33949941  0.15407106  0.67846456    -0.58900
O1117       O  0.34435984  0.15999171  0.58243075    -0.49000
O1118       O  0.35005062  0.18143728  0.65176053    -0.55400
C1119       C  0.39401572  0.14909540  0.62782700     0.84700
O1120       O  0.35466524  0.11448625  0.60778052    -0.57300
O1121       O  0.31605783  0.15103511  0.60878527    -0.60500
In1122     In  0.35177119  0.89397840  0.62621502     1.36900
C1123       C  0.32402217  0.88573613  0.58091674     0.77100
O1124       O  0.35233661  0.85931080  0.64459867    -0.61300
O1125       O  0.33925683  0.88492724  0.67287005    -0.52200
C1126       C  0.39583826  0.89214127  0.62486530     0.69800
O1127       O  0.38416513  0.88688067  0.60208874    -0.47100
C1128       C  0.34664799  0.93757182  0.62758234     0.74500
O1129       O  0.34412329  0.88001302  0.58029716    -0.58900
O1130       O  0.34173699  0.92545569  0.65013875    -0.49000
O1131       O  0.31734749  0.89356945  0.60610618    -0.55400
C1132       C  0.34517777  0.86496573  0.67060815     0.84700
O1133       O  0.38493095  0.89862532  0.64783592    -0.57300
O1134       O  0.35447979  0.92737136  0.60480269    -0.60500
In1135     In  0.60501831  0.14368844  0.62853861     1.36900
C1136       C  0.63380937  0.15069530  0.58352497     0.77100
O1137       O  0.60428990  0.17847419  0.64795199    -0.61300
O1138       O  0.61770316  0.15264762  0.67503843    -0.52200
C1139       C  0.56102428  0.14587597  0.62549490     0.69800
O1140       O  0.57339550  0.15351778  0.60467660    -0.47100
C1141       C  0.60985190  0.09997013  0.63043324     0.74500
O1142       O  0.61353798  0.15555779  0.58149688    -0.58900
O1143       O  0.61387876  0.11214161  0.65326764    -0.49000
O1144       O  0.63985677  0.14415452  0.60957261    -0.55400
C1145       C  0.61203585  0.17269182  0.67346435     0.84700
O1146       O  0.57122741  0.13699728  0.64738516    -0.57300
O1147       O  0.60302189  0.11018531  0.60719671    -0.60500
In1148     In  0.60657759  0.89035519  0.63411648     1.36900
C1149       C  0.61151990  0.86467500  0.68285251     0.77100
O1150       O  0.57306397  0.90100333  0.64978943    -0.61300
O1151       O  0.57493097  0.87737908  0.61376190    -0.52200
C1152       C  0.61238125  0.93369870  0.63140848     0.69800
O1153       O  0.62221661  0.92182279  0.65092025    -0.47100
C1154       C  0.63459179  0.88186477  0.58885273     0.74500
O1155       O  0.61290536  0.88545546  0.68408047    -0.58900
O1156       O  0.61422031  0.87729994  0.58726617    -0.49000
O1157       O  0.60911266  0.85681477  0.65633968    -0.55400
C1158       C  0.56272534  0.88906982  0.63095956     0.84700
O1159       O  0.59988992  0.92324294  0.61339113    -0.57300
O1160       O  0.64105737  0.88851994  0.61465909    -0.60500
In1161     In  0.35227741  0.20990684  0.75742632     1.36900
C1162       C  0.39675528  0.21363927  0.75877833     0.77100
O1163       O  0.35619802  0.20614345  0.80837294    -0.61300
O1164       O  0.34020333  0.18045443  0.78343516    -0.52200
C1165       C  0.32313712  0.24345415  0.75761218     0.69800
O1166       O  0.34206925  0.24488771  0.74545219    -0.47100
C1167       C  0.34489638  0.18811805  0.70533289     0.74500
O1168       O  0.38406776  0.22946197  0.76605669    -0.58900
O1169       O  0.33914851  0.18080070  0.73109917    -0.49000
O1170       O  0.38664043  0.19635578  0.75081148    -0.55400
C1171       C  0.34765949  0.18704929  0.80872347     0.84700
O1172       O  0.31929467  0.22501754  0.76992241    -0.57300
O1173       O  0.35310294  0.20732533  0.70579446    -0.60500
In1174     In  0.60932071  0.21044559  0.75215765     1.36900
C1175       C  0.56483735  0.21422850  0.75536356     0.77100
O1176       O  0.60385623  0.20626727  0.70109549    -0.61300
O1177       O  0.62083961  0.18103041  0.72525561    -0.52200
C1178       C  0.63868259  0.24405373  0.75176499     0.69800
O1179       O  0.61922697  0.24612497  0.76205543    -0.47100
C1180       C  0.61778948  0.18828829  0.80337544     0.74500
O1181       O  0.57689753  0.22870046  0.74270680    -0.58900
O1182       O  0.62119444  0.18037205  0.77711119    -0.49000
O1183       O  0.57555661  0.19821016  0.76619442    -0.55400
C1184       C  0.61272486  0.18733054  0.70027676     0.84700
O1185       O  0.64292627  0.22496807  0.74171091    -0.57300
O1186       O  0.61150319  0.20823281  0.80370883    -0.60500
In1187     In  0.17243697  0.64568816  0.74326902     1.36900
C1188       C  0.17504846  0.60134426  0.74515159     0.77100
O1189       O  0.16896361  0.64433271  0.79468650    -0.61300
O1190       O  0.14156577  0.65520174  0.76810643    -0.52200
C1191       C  0.20578562  0.67468652  0.74293979     0.69800
O1192       O  0.20788023  0.65530539  0.73253106    -0.47100
C1193       C  0.15229423  0.65408587  0.69075178     0.74500
O1194       O  0.19136898  0.61362363  0.75159766    -0.58900
O1195       O  0.14670630  0.66309755  0.71556991    -0.49000
O1196       O  0.15780221  0.61181726  0.73786793    -0.55400
C1197       C  0.14899438  0.65065409  0.79422249     0.84700
O1198       O  0.18695046  0.67881877  0.75401829    -0.57300
O1199       O  0.16933654  0.64203033  0.69215608    -0.60500
In1200     In  0.17063666  0.38924460  0.74296650     1.36900
C1201       C  0.17382600  0.43356966  0.74514082     0.77100
O1202       O  0.16622260  0.39406987  0.69224256    -0.61300
O1203       O  0.14062815  0.37801935  0.71736805    -0.52200
C1204       C  0.20427678  0.36043617  0.74240364     0.69800
O1205       O  0.20646211  0.38022977  0.75102623    -0.47100
C1206       C  0.15031934  0.38083041  0.79533004     0.74500
O1207       O  0.15809176  0.42284512  0.75696975    -0.58900
O1208       O  0.14180441  0.37656843  0.76973522    -0.49000
O1209       O  0.18826187  0.42157808  0.73220092    -0.55400
C1210       C  0.14704929  0.38570509  0.69209672     0.84700
O1211       O  0.18505091  0.35561661  0.73348261    -0.57300
O1212       O  0.17003384  0.38781711  0.79437384    -0.60500
In1213     In  0.60762008  0.82665369  0.76092050     1.36900
C1214       C  0.56387085  0.81753982  0.76162003     0.77100
O1215       O  0.61106313  0.83050711  0.81203263    -0.61300
O1216       O  0.61672875  0.85855261  0.78357550    -0.52200
C1217       C  0.63797157  0.79429032  0.76085617     0.69800
O1218       O  0.61748045  0.79054816  0.76292841    -0.47100
C1219       C  0.61130166  0.85097079  0.71042095     0.74500
O1220       O  0.57592186  0.81531153  0.73825701    -0.58900
O1221       O  0.61039318  0.85929766  0.73683061    -0.49000
O1222       O  0.57427202  0.82385965  0.78494165    -0.55400
C1223       C  0.61537229  0.85094755  0.81037142     0.84700
O1224       O  0.64282291  0.81450918  0.75899538    -0.57300
O1225       O  0.61087323  0.83010518  0.70969575    -0.47700
In1226     In  0.35289987  0.82621188  0.74680160     1.36900
C1227       C  0.39671521  0.81786552  0.74952676     0.77100
O1228       O  0.35496167  0.83134290  0.69599795    -0.61300
O1229       O  0.33955001  0.85628489  0.72329602    -0.52200
C1230       C  0.32352242  0.79315212  0.74301862     0.69800
O1231       O  0.34401380  0.78977611  0.74609307    -0.47100
C1232       C  0.34785887  0.85098518  0.79661661     0.74500
O1233       O  0.38696878  0.82327960  0.72525027    -0.58900
O1234       O  0.35384109  0.85874359  0.77114564    -0.49000
O1235       O  0.38391236  0.81577120  0.77219011    -0.55400
C1236       C  0.34597375  0.85022167  0.69708003     0.84700
O1237       O  0.31823934  0.81327717  0.74211381    -0.57300
O1238       O  0.34375184  0.83050668  0.79662319    -0.60500
In1239     In  0.79134626  0.39134249  0.75290646     1.36900
C1240       C  0.78905360  0.43581302  0.75122719     0.77100
O1241       O  0.79554775  0.39614599  0.80383161    -0.61300
O1242       O  0.82044384  0.37861782  0.77918343    -0.52200
C1243       C  0.75753728  0.36241219  0.75345280     0.69800
O1244       O  0.75527449  0.38222704  0.74498204    -0.47100
C1245       C  0.81175502  0.38335283  0.70028585     0.74500
O1246       O  0.77304995  0.42391093  0.76015137    -0.58900
O1247       O  0.82030510  0.37915299  0.72582138    -0.49000
O1248       O  0.80593584  0.42494079  0.74327205    -0.55400
C1249       C  0.81427472  0.38678014  0.80432649     0.84700
O1250       O  0.77686027  0.35769216  0.76207725    -0.57300
O1251       O  0.79199462  0.39016708  0.70137463    -0.60500
In1252     In  0.79166407  0.64822621  0.75248915     1.36900
C1253       C  0.78917522  0.60377609  0.75252820     0.77100
O1254       O  0.79492339  0.64478946  0.70139711    -0.61300
O1255       O  0.82131024  0.65976290  0.72612910    -0.52200
C1256       C  0.75785717  0.67696273  0.75397556     0.69800
O1257       O  0.75648075  0.65782660  0.76530606    -0.47100
C1258       C  0.81279738  0.65649263  0.80401958     0.74500
O1259       O  0.77409790  0.61587535  0.74152385    -0.58900
O1260       O  0.82062895  0.66160548  0.77821683    -0.49000
O1261       O  0.80517466  0.61444916  0.76357844    -0.55400
C1262       C  0.81419023  0.65295585  0.70074819     0.84700
O1263       O  0.77628256  0.68107782  0.74158393    -0.57300
O1264       O  0.79338657  0.64872177  0.80373035    -0.60500
In1265     In  0.35825114  0.14401169  0.87927826     1.36900
C1266       C  0.32985849  0.14991393  0.92494437     0.77100
O1267       O  0.35645977  0.17864309  0.86067513    -0.61300
O1268       O  0.34362421  0.15228091  0.83375177    -0.52200
C1269       C  0.40166638  0.15116182  0.87972157     0.69800
O1270       O  0.38935932  0.15602544  0.90217991    -0.47100
C1271       C  0.35742372  0.10001998  0.87619237     0.74500
O1272       O  0.35004662  0.15508622  0.92674817    -0.58900
O1273       O  0.35113345  0.11212835  0.85438636    -0.49000
O1274       O  0.32373461  0.14311445  0.89904160    -0.55400
C1275       C  0.34857595  0.17252361  0.83539115     0.84700
O1276       O  0.39177848  0.14220207  0.85757486    -0.57300
O1277       O  0.36438886  0.11047899  0.89919840    -0.60500
In1278     In  0.35483314  0.88935775  0.87351530     1.36900
C1279       C  0.34754370  0.86463994  0.82426420     0.77100
O1280       O  0.38919682  0.89743213  0.85935829    -0.61300
O1281       O  0.38528552  0.87159618  0.89176264    -0.52200
C1282       C  0.35316486  0.93316785  0.87382874     0.69800
O1283       O  0.34111516  0.92164866  0.85631360    -0.47100
C1284       C  0.32717700  0.88424954  0.92043333     0.74500
O1285       O  0.34993789  0.88529758  0.82314784    -0.58900
O1286       O  0.34696303  0.87747048  0.92098945    -0.49000
O1287       O  0.34672407  0.85667900  0.85088083    -0.55400
C1288       C  0.39849078  0.88323758  0.87599853     0.84700
O1289       O  0.36552869  0.92213475  0.89135859    -0.57300
O1290       O  0.32096985  0.89191175  0.89506969    -0.60500
In1291     In  0.61122251  0.14739904  0.87774884     1.36900
C1292       C  0.61851304  0.17443684  0.83083508     0.77100
O1293       O  0.57754879  0.14046911  0.85962055    -0.61300
O1294       O  0.58012457  0.16258974  0.89734571    -0.52200
C1295       C  0.61298288  0.10345672  0.87573077     0.69800
O1296       O  0.62489368  0.11544855  0.85860912    -0.47100
C1297       C  0.63769908  0.15319326  0.92554607     0.74500
O1298       O  0.62202429  0.15390393  0.82942057    -0.58900
O1299       O  0.61723280  0.15725709  0.92637534    -0.49000
O1300       O  0.61345431  0.18154297  0.85706123    -0.55400
C1301       C  0.56762440  0.15284353  0.87849927     0.84700
O1302       O  0.60048493  0.11402100  0.89377190    -0.57300
O1303       O  0.64511894  0.14783400  0.89957043    -0.60500
In1304     In  0.60867358  0.89311904  0.88309811     1.36900
C1305       C  0.61628294  0.86544179  0.83718962     0.77100
O1306       O  0.64267660  0.89306110  0.90453078    -0.61300
O1307       O  0.61513223  0.88220218  0.93105498    -0.52200
C1308       C  0.61232939  0.93679170  0.88094296     0.69800
O1309       O  0.62233950  0.92426537  0.86231649    -0.47100
C1310       C  0.56490458  0.88737730  0.88289404     0.74500
O1311       O  0.61811305  0.88611682  0.83458196    -0.58900
O1312       O  0.57690217  0.88083633  0.90468814    -0.49000
O1313       O  0.61303923  0.85864270  0.86411406    -0.55400
C1314       C  0.63549913  0.88683189  0.93026070     0.84700
O1315       O  0.60044814  0.92689330  0.90040400    -0.57300
O1316       O  0.57528082  0.89728486  0.86189997    -0.60500
In1317     In  0.11120946  0.38904049  0.87077051     1.36900
C1318       C  0.13716010  0.38058936  0.82337109     0.77100
O1319       O  0.10352309  0.42211692  0.85052088    -0.61300
O1320       O  0.12464900  0.42124820  0.88922751    -0.52200
C1321       C  0.06749663  0.38624502  0.87220998     0.69800
O1322       O  0.07907144  0.37574852  0.85287018    -0.47100
C1323       C  0.11827508  0.36217786  0.91765206     0.74500
O1324       O  0.11654032  0.37738782  0.82288860    -0.58900
O1325       O  0.12375380  0.38231566  0.91797278    -0.49000
O1326       O  0.14492568  0.38602850  0.84902784    -0.55400
C1327       C  0.11478007  0.43297727  0.86959818     0.84700
O1328       O  0.07839890  0.39796138  0.89072185    -0.57300
O1329       O  0.11109116  0.35521971  0.89238942    -0.60500
In1330     In  0.85753342  0.39423751  0.87585643     1.36900
C1331       C  0.82881505  0.38713899  0.83106851     0.77100
O1332       O  0.85650976  0.35955661  0.89462446    -0.61300
O1333       O  0.84491380  0.38600028  0.92262280    -0.52200
C1334       C  0.90124227  0.38954714  0.87494006     0.69800
O1335       O  0.88928286  0.38473322  0.85223815    -0.47100
C1336       C  0.85493742  0.43821192  0.87737201     0.74500
O1337       O  0.84864494  0.38055135  0.82978957    -0.58900
O1338       O  0.84775966  0.42617870  0.89884926    -0.49000
O1339       O  0.82314355  0.39569999  0.85622201    -0.55400
C1340       C  0.84973809  0.36573608  0.92058940     0.84700
O1341       O  0.89081383  0.39706989  0.89774949    -0.57300
O1342       O  0.86383404  0.42769733  0.85558222    -0.60500
In1343     In  0.10674752  0.64392761  0.86732851     1.36900
C1344       C  0.13464143  0.65083144  0.82125410     0.77100
O1345       O  0.10501404  0.67806221  0.88818761    -0.61300
O1346       O  0.11964898  0.65231299  0.91415081    -0.52200
C1347       C  0.06287327  0.64758653  0.86499945     0.69800
O1348       O  0.07559993  0.65880534  0.84805681    -0.47100
C1349       C  0.11108398  0.60008874  0.86909813     0.74500
O1350       O  0.11403060  0.65369420  0.81909460    -0.58900
O1351       O  0.11620426  0.61232114  0.89148725    -0.49000
O1352       O  0.14140520  0.64638737  0.84779711    -0.55400
C1353       C  0.11311747  0.67213599  0.91336339     0.84700
O1354       O  0.07266191  0.63420479  0.88246779    -0.57300
O1355       O  0.10367250  0.61034878  0.84619464    -0.60500
In1356     In  0.85354709  0.64958510  0.87759501     1.36900
C1357       C  0.84492313  0.67549283  0.92511237     0.77100
O1358       O  0.88731976  0.64923350  0.89814230    -0.61300
O1359       O  0.88404984  0.66102615  0.85252551    -0.52200
C1360       C  0.85248346  0.60531171  0.87823194     0.69800
O1361       O  0.83907304  0.61705503  0.89341249    -0.47100
C1362       C  0.82633239  0.65686847  0.83152126     0.74500
O1363       O  0.84387357  0.65469774  0.92637162    -0.58900
O1364       O  0.84633075  0.66282072  0.83097871    -0.49000
O1365       O  0.84849289  0.68330986  0.89882509    -0.55400
C1366       C  0.89683274  0.65679582  0.87458376     0.84700
O1367       O  0.86635045  0.61624433  0.86281422    -0.57300
O1368       O  0.81968979  0.64900979  0.85660298    -0.60500
In1369     In  0.29045623  0.89108303  0.49972260     1.36900
C1370       C  0.28717837  0.93548235  0.00093092     0.77100
O1371       O  0.29158408  0.89431858  0.55141868    -0.61300
O1372       O  0.31834385  0.87867093  0.52817013    -0.52200
C1373       C  0.25765207  0.86109593  0.49697910     0.69800
O1374       O  0.25470015  0.88133471  0.99110734    -0.47100
C1375       C  0.31321133  0.88500417  0.94793088     0.74500
O1376       O  0.27058735  0.92292482  0.50485221    -0.58900
O1377       O  0.32018391  0.87881436  0.97360702    -0.49000
O1378       O  0.30513532  0.92527660  0.99647772    -0.55400
C1379       C  0.31058084  0.88562038  0.55314590     0.84700
O1380       O  0.27725935  0.85642179  0.50426180    -0.57300
O1381       O  0.29405101  0.89339348  0.94831862    -0.60500
In1382     In  0.29094468  0.14756597  0.00223316     1.36900
C1383       C  0.28644474  0.10329860  0.00434182     0.77100
O1384       O  0.29570161  0.14281807  0.95142541    -0.61300
O1385       O  0.32183378  0.15714263  0.97728473    -0.52200
C1386       C  0.25826323  0.17736914  0.99921356     0.69800
O1387       O  0.25556626  0.15826405  0.51022558    -0.47100
C1388       C  0.31068143  0.15639351  0.55500936     0.74500
O1389       O  0.27177273  0.11572119  0.99301373    -0.58900
O1390       O  0.31931982  0.16067052  0.52942577    -0.49000
O1391       O  0.30301335  0.11356289  0.51446161    -0.55400
C1392       C  0.31522737  0.15034714  0.95166404     0.84700
O1393       O  0.27756947  0.18106678  0.98940602    -0.57300
O1394       O  0.29102923  0.14927324  0.55390911    -0.60500
In1395     In  0.85346080  0.32755409  0.49814699     1.36900
C1396       C  0.89804658  0.32394442  0.50023752     0.77100
O1397       O  0.85747834  0.33183779  0.94708571    -0.61300
O1398       O  0.84287119  0.35789248  0.97303426    -0.52200
C1399       C  0.82430070  0.29399641  0.49634751     0.69800
O1400       O  0.84290094  0.29241922  0.50921921    -0.47100
C1401       C  0.84365085  0.34877085  0.54976271     0.74500
O1402       O  0.88740350  0.34054090  0.50965991    -0.58900
O1403       O  0.83932011  0.35642535  0.52372270    -0.49000
O1404       O  0.88588132  0.30888206  0.48931366    -0.55400
C1405       C  0.84951319  0.35119130  0.94730490     0.84700
O1406       O  0.82083151  0.31257242  0.48428664    -0.57300
O1407       O  0.85149104  0.32939535  0.54973008    -0.60500
In1408     In  0.11061202  0.32866303  0.99868845     1.36900
C1409       C  0.06622689  0.32501268  0.00061847     0.77100
O1410       O  0.10870495  0.33178103  0.55012487    -0.61300
O1411       O  0.11979899  0.35932618  0.52395115    -0.52200
C1412       C  0.14018949  0.29571698  0.99996050     0.69800
O1413       O  0.12039595  0.29287440  0.99166075    -0.47100
C1414       C  0.11791021  0.34879772  0.94551716     0.74500
O1415       O  0.07630840  0.34269033  0.99433185    -0.58900
O1416       O  0.12491016  0.35618252  0.97058529    -0.49000
O1417       O  0.07890576  0.30881470  0.00582793    -0.55400
C1418       C  0.11471258  0.35180519  0.54986891     0.84700
O1419       O  0.14469499  0.31531516  0.00755913    -0.57300
O1420       O  0.10859672  0.33013041  0.94709848    -0.60500
In1421     In  0.85247130  0.71038959  0.50454911     1.36900
C1422       C  0.89681812  0.71441076  0.00177841     0.77100
O1423       O  0.85877534  0.70570679  0.55478914    -0.61300
O1424       O  0.83959797  0.68161355  0.53120587    -0.52200
C1425       C  0.82288974  0.74322282  0.50652088     0.69800
O1426       O  0.84245292  0.74594068  0.99667007    -0.47100
C1427       C  0.84478592  0.68897834  0.95284554     0.74500
O1428       O  0.88459710  0.72888453  0.51433978    -0.58900
O1429       O  0.84229889  0.68032089  0.97880541    -0.49000
O1430       O  0.88625900  0.69833060  0.99074356    -0.55400
C1431       C  0.84862306  0.68745519  0.55582250     0.84700
O1432       O  0.81873712  0.72385872  0.51542089    -0.57300
O1433       O  0.84961333  0.70932740  0.95309167    -0.60500
In1434     In  0.10909741  0.70941171  0.49229371     1.36900
C1435       C  0.06462206  0.71327996  0.49445194     0.77100
O1436       O  0.10342345  0.70494158  0.94154154    -0.61300
O1437       O  0.12181625  0.68045042  0.96527780    -0.52200
C1438       C  0.13893401  0.74259182  0.49107544     0.69800
O1439       O  0.11933498  0.74516799  0.50062152    -0.47100
C1440       C  0.11644233  0.68800202  0.54438453     0.74500
O1441       O  0.07701062  0.72864076  0.48473953    -0.58900
O1442       O  0.12015241  0.67965271  0.51848028    -0.49000
O1443       O  0.07501330  0.69629957  0.50290207    -0.55400
C1444       C  0.11322523  0.68647096  0.94046574     0.84700
O1445       O  0.14307296  0.72322621  0.48203591    -0.57300
O1446       O  0.11043770  0.70801669  0.54397644    -0.60500
In1447     In  0.67099950  0.89002661  0.51020437     1.36900
C1448       C  0.67519212  0.93420619  0.51033024     0.77100
O1449       O  0.66876745  0.89371049  0.95881393    -0.61300
O1450       O  0.64128789  0.88037361  0.98323948    -0.52200
C1451       C  0.70398891  0.86043165  0.50965388     0.69800
O1452       O  0.70617317  0.87955998  0.52080619    -0.47100
C1453       C  0.64887874  0.88215072  0.56174910     0.74500
O1454       O  0.69120014  0.92151799  0.50386384    -0.58900
O1455       O  0.64204662  0.87601810  0.53595143    -0.49000
O1456       O  0.65746962  0.92422541  0.51681235    -0.55400
C1457       C  0.64910082  0.88654487  0.95790178     0.84700
O1458       O  0.68502253  0.85657661  0.49899942    -0.57300
O1459       O  0.66791669  0.89079306  0.56165089    -0.60500
In1460     In  0.67233939  0.14594962  0.50552015     1.36900
C1461       C  0.67638184  0.10162144  0.50471071     0.77100
O1462       O  0.66792963  0.14300056  0.55695242    -0.61300
O1463       O  0.64190101  0.15695414  0.53092626    -0.52200
C1464       C  0.70573876  0.17546179  0.50354802     0.69800
O1465       O  0.70870665  0.15501980  0.49936365    -0.47100
C1466       C  0.65109259  0.15270257  0.95337088     0.74500
O1467       O  0.68994117  0.11399449  0.51851317    -0.58900
O1468       O  0.64281988  0.15716695  0.97917426    -0.49000
O1469       O  0.66119138  0.11195615  0.49123153    -0.55400
C1470       C  0.64850103  0.15072351  0.55674007     0.84700
O1471       O  0.68589498  0.18058536  0.50912734    -0.57300
O1472       O  0.67093442  0.14595848  0.95390813    -0.60500
C1473       C  0.65816055  0.99445161  0.51439814    -0.11300
C1474       C  0.67817952  0.00556732  0.50828234     0.05900
C1475       C  0.69757516  0.99296374  0.00371661    -0.10000
C1476       C  0.69678454  0.96973196  0.00448954    -0.11700
C1477       C  0.67661394  0.95870529  0.51010826    -0.01500
C1478       C  0.65739569  0.97135028  0.51531360    -0.10600
C1479       C  0.67851533  0.03020304  0.50630074     0.05900
H1480       H  0.71323000  0.00103834  0.99882977     0.07800
H1481       H  0.71186608  0.96039689  0.00047070     0.11300
H1482       H  0.64163809  0.96336970  0.51990804     0.11500
H1483       H  0.64302835  0.00365322  0.51864493     0.07800
C1484       C  0.66113125  0.04150549  0.49170252    -0.11300
C1485       C  0.66073447  0.06463422  0.49080647    -0.10600
C1486       C  0.67767023  0.07709787  0.50457297    -0.01500
C1487       C  0.69531991  0.06590814  0.01867933    -0.11700
C1488       C  0.69578221  0.04267839  0.01945621    -0.10100
H1489       H  0.64779169  0.03243070  0.48087143     0.07800
H1490       H  0.64696936  0.07277888  0.47961337     0.11500
H1491       H  0.70861195  0.07510021  0.02942163     0.11300
H1492       H  0.70933866  0.03447383  0.03101859     0.07800
C1493       C  0.76872556  0.77331289  0.51956858    -0.11300
C1494       C  0.77341311  0.79442097  0.50775204     0.05900
C1495       C  0.79477230  0.79879416  0.99598704    -0.10000
C1496       C  0.81099053  0.78219484  0.99569893    -0.11700
C1497       C  0.80612714  0.76102847  0.50735340    -0.01500
C1498       C  0.78492471  0.75680464  0.51944339    -0.10600
C1499       C  0.75594317  0.81166582  0.50755544     0.05900
H1500       H  0.79870282  0.81488690  0.98648757     0.07800
H1501       H  0.82718285  0.78582668  0.98610286     0.11300
H1502       H  0.78080409  0.74068081  0.52869173     0.11500
H1503       H  0.75252396  0.76962965  0.52910669     0.07800
C1504       C  0.73454304  0.80641242  0.99771135    -0.11300
C1505       C  0.71776132  0.82233338  0.99828264    -0.10600
C1506       C  0.72198355  0.84382136  0.50895587    -0.01500
C1507       C  0.74348567  0.84917195  0.51882544    -0.11700
C1508       C  0.76037336  0.83324680  0.51795312    -0.10100
H1509       H  0.73076292  0.78994376  0.98935980     0.07800
H1510       H  0.70135983  0.81775018  0.99048262     0.11500
H1511       H  0.74723086  0.86563514  0.52720998     0.11300
H1512       H  0.77677286  0.83764409  0.52596431     0.07800
C1513       C  0.95647280  0.69923946  0.98413204    -0.11300
C1514       C  0.96828784  0.71665436  0.49780974     0.05900
C1515       C  0.95636099  0.73387957  0.51211277    -0.10000
C1516       C  0.93307130  0.73336668  0.51335694    -0.11700
C1517       C  0.92136591  0.71570825  0.00007091    -0.01500
C1518       C  0.93331152  0.69879214  0.98522298    -0.10600
C1519       C  0.99301102  0.71629718  0.49766693     0.05900
H1520       H  0.96507192  0.74745169  0.52295515     0.07800
H1521       H  0.92429516  0.74663022  0.52493230     0.11300
H1522       H  0.92474696  0.68504535  0.97456827     0.11500
H1523       H  0.96514351  0.68591910  0.97251791     0.07800
C1524       C  0.00443706  0.69656108  0.00430464    -0.11300
C1525       C  0.02761402  0.69577287  0.00351480    -0.10600
C1526       C  0.04002120  0.71464087  0.49577545    -0.01500
C1527       C  0.02873188  0.73445521  0.48926121    -0.11700
C1528       C  0.00544819  0.73531534  0.49039381    -0.10100
H1529       H  0.99535799  0.68170604  0.01037680     0.07800
H1530       H  0.03579082  0.68027006  0.00878173     0.11500
H1531       H  0.03789985  0.74926311  0.48325657     0.11300
H1532       H  0.99714192  0.75071759  0.48497691     0.07800
C1533       C  0.79592076  0.23870278  0.51020368    -0.11300
C1534       C  0.77521071  0.24198487  0.49616870     0.05900
C1535       C  0.77118429  0.26229962  0.98141479    -0.10000
C1536       C  0.78725234  0.27901245  0.98117381    -0.11700
C1537       C  0.80775476  0.27585127  0.49568421    -0.01500
C1538       C  0.81200434  0.25547795  0.51001318    -0.10600
C1539       C  0.75756121  0.22470067  0.49779396     0.05900
H1540       H  0.75556045  0.26526800  0.96999328     0.07800
H1541       H  0.78352847  0.29449716  0.96981538     0.11300
H1542       H  0.82765290  0.25260927  0.52142441     0.11500
H1543       H  0.79947674  0.22337610  0.52203948     0.07800
C1544       C  0.76263795  0.20205821  0.49440303    -0.11300
C1545       C  0.74588272  0.18596531  0.49628470    -0.10600
C1546       C  0.72373435  0.19218450  0.50176192    -0.01500
C1547       C  0.71871161  0.21479482  0.00521367    -0.11700
C1548       C  0.73537717  0.23083128  0.00321342    -0.10100
H1549       H  0.77952755  0.19680988  0.48993863     0.07800
H1550       H  0.75024239  0.16868080  0.49342258     0.11500
H1551       H  0.70181713  0.22012080  0.00947937     0.11300
H1552       H  0.73091248  0.24805516  0.00641601     0.07800
C1553       C  0.00580633  0.34222099  0.49783675    -0.11300
C1554       C  0.99457232  0.32222996  0.00353759     0.05900
C1555       C  0.00724478  0.30292138  0.00822671    -0.10000
C1556       C  0.03054251  0.30369908  0.00742123    -0.11700
C1557       C  0.04163947  0.32376800  0.00175738    -0.01500
C1558       C  0.02897401  0.34297906  0.49697007    -0.10600
C1559       C  0.96974999  0.32173086  0.50412596     0.05900
H1560       H  0.99916058  0.28726829  0.01288379     0.07800
H1561       H  0.03986087  0.28861763  0.01119198     0.11300
H1562       H  0.03699693  0.35869529  0.49245159     0.11500
H1563       H  0.99667650  0.35733632  0.49353619     0.07800
C1564       C  0.95777738  0.33954277  0.01692806    -0.11300
C1565       C  0.93459737  0.34002660  0.01580848    -0.10600
C1566       C  0.92265298  0.32266507  0.50202149    -0.01500
C1567       C  0.93448459  0.30452796  0.49001266    -0.11700
C1568       C  0.95778638  0.30405679  0.49106787    -0.10100
H1569       H  0.96633476  0.35318996  0.02782638     0.07800
H1570       H  0.92600088  0.35412043  0.02563433     0.11500
H1571       H  0.92575079  0.29088160  0.47939206     0.11300
H1572       H  0.96644561  0.29015231  0.48087065     0.07800
C1573       C  0.19487497  0.26583934  0.50889522    -0.11300
C1574       C  0.18945725  0.24416222  0.99993010     0.05900
C1575       C  0.16742184  0.23936220  0.99181017    -0.10000
C1576       C  0.15128029  0.25604897  0.99202481    -0.11700
C1577       C  0.15687459  0.27778661  0.00053116    -0.01500
C1578       C  0.17876084  0.28245101  0.50923930    -0.10600
C1579       C  0.20684371  0.22675880  0.99889660     0.05900
H1580       H  0.16278834  0.22281706  0.98468052     0.07800
H1581       H  0.13449659  0.25199945  0.98527318     0.11300
H1582       H  0.18351571  0.29902505  0.51608779     0.11500
H1583       H  0.21161878  0.26993737  0.51577083     0.07800
C1584       C  0.22794573  0.23149210  0.48683715    -0.11300
C1585       C  0.24455299  0.21533930  0.48652264    -0.10600
C1586       C  0.24042555  0.19413629  0.99836445    -0.01500
C1587       C  0.21926758  0.18929916  0.01017806    -0.11700
C1588       C  0.20261656  0.20543868  0.01038006    -0.10100
H1589       H  0.23159354  0.24769802  0.47747904     0.07800
H1590       H  0.26070637  0.21951261  0.47721949     0.11500
H1591       H  0.21565347  0.17309912  0.01957345     0.11300
H1592       H  0.18656625  0.20139297  0.02011076     0.07800
C1593       C  0.16699713  0.79849718  0.50183549    -0.11300
C1594       C  0.18869389  0.79408112  0.49146798     0.05900
C1595       C  0.19366119  0.77280055  0.98031439    -0.10000
C1596       C  0.17742144  0.75624320  0.97989742    -0.11700
C1597       C  0.15580374  0.76051099  0.49072317    -0.01500
C1598       C  0.15074069  0.78187080  0.50154402    -0.10600
C1599       C  0.20627153  0.81142526  0.49278356     0.05900
H1600       H  0.21010761  0.76894413  0.97176029     0.07800
H1601       H  0.18182093  0.73999223  0.97127324     0.11300
H1602       H  0.13426930  0.78567082  0.51004701     0.11500
H1603       H  0.16272293  0.81468338  0.51079814     0.07800
C1604       C  0.20177329  0.83345678  0.48434235    -0.11300
C1605       C  0.21842038  0.84965480  0.48564143    -0.10600
C1606       C  0.23988179  0.84416678  0.49550859    -0.01500
C1607       C  0.24439058  0.82220747  0.00397188    -0.11700
C1608       C  0.22780593  0.80604576  0.00261719    -0.10100
H1609       H  0.18543937  0.83809957  0.47636615     0.07800
H1610       H  0.21452066  0.86644953  0.47884600     0.11500
H1611       H  0.26074722  0.81748019  0.01178874     0.11300
H1612       H  0.23174373  0.78932060  0.00968291     0.07800
C1613       C  0.30102859  0.04335630  0.52020989    -0.11300
C1614       C  0.28388785  0.03177247  0.00550533     0.05900
C1615       C  0.26686024  0.04403465  0.99144878    -0.10000
C1616       C  0.26735485  0.06730363  0.99142892    -0.11700
C1617       C  0.28486554  0.07876962  0.00550648    -0.01500
C1618       C  0.30152627  0.06650632  0.52017675    -0.10600
C1619       C  0.28437469  0.00704405  0.00400615     0.05900
H1620       H  0.25349805  0.03564255  0.97969331     0.07800
H1621       H  0.25429331  0.07630017  0.97990718     0.11300
H1622       H  0.31515506  0.07482728  0.53146400     0.11500
H1623       H  0.31416920  0.03450286  0.53177807     0.07800
C1624       C  0.30453574  0.99584380  0.49906015    -0.11300
C1625       C  0.30530174  0.97270213  0.49791650    -0.10600
C1626       C  0.28595573  0.96006410  0.00170188    -0.01500
C1627       C  0.26568758  0.97114487  0.00627399    -0.11700
C1628       C  0.26489134  0.99438897  0.00734164    -0.10100
H1629       H  0.31979896  0.00501056  0.49575273     0.07800
H1630       H  0.32115927  0.96469164  0.49412621     0.11500
H1631       H  0.25046452  0.96184061  0.00917234     0.11300
H1632       H  0.24908523  0.00244582  0.01129241     0.07800
C1633       C  0.00262040  0.64048365  0.88652312    -0.11300
C1634       C  0.99216531  0.65617199  0.86773079     0.05900
C1635       C  0.00514426  0.66864216  0.84723318    -0.10000
C1636       C  0.02816514  0.66569744  0.84597217    -0.11700
C1637       C  0.03854662  0.65017505  0.86508571    -0.01500
C1638       C  0.02553928  0.63752470  0.88521961    -0.10600
C1639       C  0.96775808  0.65906264  0.86944971     0.05900
H1640       H  0.99754467  0.68091254  0.83257623     0.07800
H1641       H  0.03785627  0.67570738  0.83029604     0.11300
H1642       H  0.03309769  0.62539646  0.90015049     0.11500
H1643       H  0.99302470  0.63029367  0.90208844     0.07800
C1644       C  0.95504326  0.66114490  0.84269664    -0.11300
C1645       C  0.93185992  0.66143777  0.84438429    -0.10600
C1646       C  0.92107452  0.65951717  0.87281717    -0.01500
C1647       C  0.93376537  0.65854402  0.89960900    -0.11700
C1648       C  0.95686898  0.65843233  0.89795909    -0.10100
H1649       H  0.96297284  0.66156667  0.82041250     0.07800
H1650       H  0.92238941  0.66218638  0.82339727     0.11500
H1651       H  0.92582078  0.65735551  0.92183945     0.11300
H1652       H  0.96623594  0.65738382  0.91900298     0.07800
C1653       C  0.84568582  0.49722477  0.90424175    -0.11300
C1654       C  0.85099421  0.50935857  0.87771961     0.05900
C1655       C  0.85663546  0.49775835  0.85084979    -0.10000
C1656       C  0.85773198  0.47465286  0.85076232    -0.11700
C1657       C  0.85303133  0.46259783  0.87746376    -0.01500
C1658       C  0.84663424  0.47405221  0.90407841    -0.10600
C1659       C  0.85130766  0.53399807  0.87814365     0.05900
H1660       H  0.86027189  0.50656593  0.82984481     0.07800
H1661       H  0.86233582  0.46621531  0.82977619     0.11300
H1662       H  0.84281974  0.46512482  0.92493299     0.11500
H1663       H  0.84139521  0.50564898  0.92534986     0.07800
C1664       C  0.83503179  0.54609163  0.89418553    -0.11300
C1665       C  0.83541898  0.56927811  0.89430293    -0.10600
C1666       C  0.85207571  0.58082809  0.87839336    -0.01500
C1667       C  0.86841187  0.56877731  0.86252847    -0.11700
C1668       C  0.86806315  0.54564007  0.86246104    -0.10100
H1669       H  0.82179656  0.53763857  0.90626002     0.07800
H1670       H  0.82259967  0.57817160  0.90668097     0.11500
H1671       H  0.88154154  0.57724175  0.85022844     0.11300
H1672       H  0.88109472  0.53684824  0.85037799     0.07800
C1673       C  0.11403316  0.54072810  0.84183851    -0.11300
C1674       C  0.11559015  0.52895073  0.86950661     0.05900
C1675       C  0.11641756  0.54094932  0.89715208    -0.10000
C1676       C  0.11542217  0.56413027  0.89708699    -0.11700
C1677       C  0.11329541  0.57572959  0.86943159    -0.01500
C1678       C  0.11274218  0.56381915  0.84182836    -0.10600
C1679       C  0.11584310  0.50428002  0.86939323     0.05900
H1680       H  0.11732777  0.53242301  0.91889215     0.07800
H1681       H  0.11578425  0.57295061  0.91868927     0.11300
H1682       H  0.11135910  0.57238096  0.82014801     0.11500
H1683       H  0.11387280  0.53210157  0.82008933     0.07800
C1684       C  0.10275943  0.49243796  0.84840000    -0.11300
C1685       C  0.10278225  0.46931709  0.84821658    -0.10600
C1686       C  0.11572960  0.45743251  0.86917626    -0.01500
C1687       C  0.12889257  0.46913909  0.89012531    -0.11700
C1688       C  0.12897507  0.49233823  0.89020982    -0.10100
H1689       H  0.09213416  0.50102949  0.83241852     0.07800
H1690       H  0.09235852  0.46073308  0.83191644     0.11500
H1691       H  0.13905976  0.46036923  0.90649986     0.11300
H1692       H  0.13947417  0.50091477  0.90640502     0.07800
C1693       C  0.00814783  0.39955402  0.89224785    -0.11300
C1694       C  0.99653580  0.38408850  0.87443011     0.05900
C1695       C  0.00845193  0.36911988  0.85599087    -0.10000
C1696       C  0.03161195  0.36968964  0.85531403    -0.11700
C1697       C  0.04315235  0.38521712  0.87309644    -0.01500
C1698       C  0.03124586  0.40007749  0.89163865    -0.10600
C1699       C  0.97204016  0.38401198  0.87470303     0.05900
H1700       H  0.99984999  0.35691825  0.84225931     0.07800
H1701       H  0.04047977  0.35799927  0.84094773     0.11300
H1702       H  0.03978299  0.41231099  0.90540260     0.11500
H1703       H  0.99933795  0.41150636  0.90626707     0.07800
C1704       C  0.96036610  0.38636319  0.90241484    -0.11300
C1705       C  0.93727621  0.38781513  0.90250731    -0.10600
C1706       C  0.92548086  0.38682778  0.87490473    -0.01500
C1707       C  0.93706597  0.38378031  0.84729635    -0.11700
C1708       C  0.96018637  0.38246262  0.84717772    -0.10100
H1709       H  0.96912399  0.38722195  0.92398324     0.07800
H1710       H  0.92865574  0.38986977  0.92413944     0.11500
H1711       H  0.92829256  0.38299569  0.82574249     0.11300
H1712       H  0.96882978  0.38086131  0.82549621     0.07800
C1713       C  0.62320340  0.99505497  0.85308388    -0.11300
C1714       C  0.61525986  0.00773927  0.87787821     0.05900
C1715       C  0.60739122  0.99671171  0.90411953    -0.10000
C1716       C  0.60664482  0.97365489  0.90509446    -0.11700
C1717       C  0.61412637  0.96107753  0.88010765    -0.01500
C1718       C  0.62277621  0.97191080  0.85428637    -0.10600
C1719       C  0.61458345  0.03232697  0.87630868     0.05900
H1720       H  0.60175527  0.00588927  0.92398895     0.07800
H1721       H  0.60018723  0.96565757  0.92544743     0.11300
H1722       H  0.62863885  0.96251070  0.83472276     0.11500
H1723       H  0.62917848  0.00296675  0.83241597     0.07800
C1724       C  0.63135164  0.04436402  0.86117610    -0.11300
C1725       C  0.63068062  0.06753189  0.86036697    -0.10600
C1726       C  0.61341657  0.07905410  0.87502951    -0.01500
C1727       C  0.59653802  0.06707645  0.88973991    -0.11700
C1728       C  0.59700971  0.04400378  0.89016444    -0.10100
H1729       H  0.64523514  0.03593997  0.85051362     0.07800
H1730       H  0.64390442  0.07643916  0.84889313     0.11500
H1731       H  0.58287337  0.07556540  0.90088464     0.11300
H1732       H  0.58347407  0.03532743  0.90124775     0.07800
C1733       C  0.45881201  0.89625783  0.86253285    -0.11300
C1734       C  0.46964159  0.87908454  0.87807621     0.05900
C1735       C  0.45682018  0.86286726  0.89306671    -0.10000
C1736       C  0.43355671  0.86391154  0.89241885    -0.11700
C1737       C  0.42288252  0.88120765  0.87682377    -0.01500
C1738       C  0.43577222  0.89727051  0.86185060    -0.10600
C1739       C  0.49423691  0.87884086  0.87897396     0.05900
H1740       H  0.46478128  0.84938639  0.90510006     0.07800
H1741       H  0.42396016  0.85128716  0.90406343     0.11300
H1742       H  0.42803695  0.91090179  0.84984378     0.11500
H1743       H  0.46819701  0.90923870  0.85131495     0.07800
C1744       C  0.50649357  0.88421862  0.85256396    -0.11300
C1745       C  0.52945857  0.88675544  0.85392121    -0.10600
C1746       C  0.54072971  0.88372652  0.88163275    -0.01500
C1747       C  0.52868644  0.87743085  0.90781374    -0.11700
C1748       C  0.50558909  0.87505529  0.90651441    -0.10100
H1749       H  0.49823486  0.88683943  0.83090142     0.07800
H1750       H  0.53839413  0.89125733  0.83327652     0.11500
H1751       H  0.53704310  0.87493744  0.92942682     0.11300
H1752       H  0.49653742  0.87107595  0.92726055     0.07800
C1753       C  0.46040394  0.16203778  0.90568830    -0.11300
C1754       C  0.47216582  0.16012216  0.87792977     0.05900
C1755       C  0.46027581  0.15714969  0.85062214    -0.10000
C1756       C  0.43729401  0.15467114  0.85125876    -0.11700
C1757       C  0.42568856  0.15548237  0.87913965    -0.01500
C1758       C  0.43730740  0.15984029  0.90625806    -0.10600
C1759       C  0.49674138  0.15922958  0.87760030     0.05900
H1760       H  0.46881494  0.15621036  0.82878900     0.07800
H1761       H  0.42862822  0.15179798  0.82995001     0.11300
H1762       H  0.42864891  0.16068209  0.92800642     0.11500
H1763       H  0.46910589  0.16420954  0.92711008     0.07800
C1764       C  0.50948906  0.17288493  0.89682125    -0.11300
C1765       C  0.53263353  0.17094130  0.89721316    -0.10600
C1766       C  0.54333110  0.15537333  0.87832755    -0.01500
C1767       C  0.53060203  0.14190024  0.85902052    -0.11700
C1768       C  0.50759602  0.14374691  0.85873294    -0.10100
H1769       H  0.50157910  0.18506263  0.91146058     0.07800
H1770       H  0.54213961  0.18158168  0.91222261     0.11500
H1771       H  0.53841421  0.12965912  0.84436473     0.11300
H1772       H  0.49826302  0.13262314  0.84420146     0.07800
C1773       C  0.35910190  0.04028468  0.90146378    -0.11300
C1774       C  0.35499113  0.02890807  0.87396121     0.05900
C1775       C  0.35156212  0.04120722  0.84706759    -0.10000
C1776       C  0.35227063  0.06436948  0.84771214    -0.11700
C1777       C  0.35658394  0.07562094  0.87519890    -0.01500
C1778       C  0.35998217  0.06337101  0.90204021    -0.10600
C1779       C  0.35446458  0.00431648  0.87349368     0.05900
H1780       H  0.34864145  0.03292601  0.82545827     0.07800
H1781       H  0.34965548  0.07346386  0.82668238     0.11300
H1782       H  0.36312774  0.07165105  0.92360028     0.11500
H1783       H  0.36139741  0.03134269  0.92268158     0.07800
C1784       C  0.36959380  0.99214673  0.89115662    -0.11300
C1785       C  0.36896466  0.96906341  0.89133810    -0.10600
C1786       C  0.35329888  0.95758673  0.87371554    -0.01500
C1787       C  0.33825270  0.96962882  0.85582046    -0.11700
C1788       C  0.33880162  0.99280590  0.85575064    -0.10100
H1789       H  0.38212332  0.00046809  0.90462334     0.07800
H1790       H  0.38090855  0.96018498  0.90512647     0.11500
H1791       H  0.32601283  0.96114725  0.84202702     0.11300
H1792       H  0.32676273  0.00171333  0.84218074     0.07800
C1793       C  0.80749230  0.49567101  0.74312048    -0.11300
C1794       C  0.78798730  0.50743236  0.75029139     0.05900
C1795       C  0.76859929  0.49532400  0.75697723    -0.10000
C1796       C  0.76883975  0.47208055  0.75710267    -0.11700
C1797       C  0.78842616  0.46040644  0.75034846    -0.01500
C1798       C  0.80768864  0.47247568  0.74306249    -0.10600
C1799       C  0.78802192  0.53218075  0.75118329     0.05900
H1800       H  0.75333703  0.50382554  0.76280968     0.07800
H1801       H  0.75373144  0.46324188  0.76271164     0.11300
H1802       H  0.82302737  0.46397579  0.73757718     0.11500
H1803       H  0.82262267  0.50441704  0.73734699     0.07800
C1804       C  0.80614540  0.54376810  0.76357432    -0.11300
C1805       C  0.80636539  0.56695351  0.76420429    -0.10600
C1806       C  0.78850325  0.57918932  0.75238445    -0.01500
C1807       C  0.77030503  0.56769204  0.74019438    -0.11700
C1808       C  0.77003934  0.54445540  0.73966429    -0.10100
H1809       H  0.82010765  0.53488968  0.77311031     0.07800
H1810       H  0.82060659  0.57531691  0.77388455     0.11500
H1811       H  0.75631993  0.57666578  0.73089414     0.11300
H1812       H  0.75590820  0.53608870  0.72971942     0.07800
C1813       C  0.69378655  0.76578222  0.75986415    -0.11300
C1814       C  0.68796580  0.74318361  0.75944529     0.05900
C1815       C  0.66525936  0.73759695  0.76004675    -0.10000
C1816       C  0.64894640  0.75415177  0.76075165    -0.11700
C1817       C  0.65496286  0.77662717  0.76058703    -0.01500
C1818       C  0.67752591  0.78223989  0.76011908    -0.10600
C1819       C  0.70559683  0.72575938  0.75786479     0.05900
H1820       H  0.66001370  0.72046800  0.75933834     0.07800
H1821       H  0.63162898  0.74936663  0.76106387     0.11300
H1822       H  0.68266599  0.79942903  0.76019662     0.11500
H1823       H  0.71097859  0.77090354  0.76033247     0.07800
C1824       C  0.72572530  0.73003554  0.74248315    -0.11300
C1825       C  0.74255699  0.71418497  0.74141197    -0.10600
C1826       C  0.73967431  0.69341856  0.75519355    -0.01500
C1827       C  0.71954928  0.68882329  0.77023832    -0.11700
C1828       C  0.70271288  0.70484901  0.77166947    -0.10100
H1829       H  0.72849695  0.74557643  0.73079064     0.07800
H1830       H  0.75785304  0.71818896  0.72954647     0.11500
H1831       H  0.71691834  0.67294720  0.78116928     0.11300
H1832       H  0.68764108  0.70094700  0.78408642     0.07800
C1833       C  0.50327488  0.81816462  0.78537012    -0.11300
C1834       C  0.49266660  0.81122886  0.75833486     0.05900
C1835       C  0.50593798  0.80473515  0.73327195    -0.10000
C1836       C  0.52908939  0.80610922  0.73470978    -0.11700
C1837       C  0.53956635  0.81386775  0.76129837    -0.01500
C1838       C  0.52645180  0.81940520  0.78685081    -0.10600
C1839       C  0.46795235  0.81180803  0.75577552     0.05900
H1840       H  0.49842002  0.79882452  0.71233147     0.07800
H1841       H  0.53878422  0.80153665  0.71473567     0.11300
H1842       H  0.53407181  0.82545734  0.80765955     0.11500
H1843       H  0.49367164  0.82350859  0.80504302     0.07800
C1844       C  0.45427645  0.80667925  0.78100736    -0.11300
C1845       C  0.43113991  0.80829413  0.77886085    -0.10600
C1846       C  0.42110609  0.81494460  0.75139878    -0.01500
C1847       C  0.43468357  0.81979067  0.72606328    -0.11700
C1848       C  0.45779692  0.81829984  0.72823479    -0.10100
H1849       H  0.46144104  0.80137763  0.80246166     0.07800
H1850       H  0.42109839  0.80449274  0.79879421     0.11500
H1851       H  0.42745294  0.82518717  0.70467949     0.11300
H1852       H  0.46772347  0.82283481  0.70850197     0.07800
C1853       C  0.26117499  0.70257808  0.72854966    -0.11300
C1854       C  0.25697657  0.72420475  0.73916896     0.05900
C1855       C  0.23588613  0.72916880  0.75123896    -0.10000
C1856       C  0.21939485  0.71300033  0.75255477    -0.11700
C1857       C  0.22358484  0.69144530  0.74193120    -0.01500
C1858       C  0.24461429  0.68634470  0.72991002    -0.10600
C1859       C  0.27447636  0.74155241  0.73827024     0.05900
H1860       H  0.23218932  0.74549918  0.76017127     0.07800
H1861       H  0.20332173  0.71740409  0.76194187     0.11300
H1862       H  0.24821979  0.66986056  0.72144195     0.11500
H1863       H  0.27716133  0.69827285  0.71883484     0.07800
C1864       C  0.29668380  0.73640281  0.74507332    -0.11300
C1865       C  0.31277755  0.75309677  0.74619194    -0.10600
C1866       C  0.30694034  0.77524192  0.74068824    -0.01500
C1867       C  0.28490106  0.78032357  0.73320868    -0.11700
C1868       C  0.26889247  0.76366791  0.73182132    -0.10100
H1869       H  0.30150978  0.71958326  0.75043497     0.07800
H1870       H  0.32968009  0.74874963  0.75197911     0.11500
H1871       H  0.27999308  0.79723368  0.72850047     0.11300
H1872       H  0.25207249  0.76815404  0.72580686     0.07800
C1873       C  0.19530363  0.54191819  0.75400433    -0.11300
C1874       C  0.17604633  0.52977047  0.74693638     0.05900
C1875       C  0.15666877  0.54143371  0.73929420    -0.10000
C1876       C  0.15650226  0.56458739  0.73873169    -0.11700
C1877       C  0.17567684  0.57675529  0.74590518    -0.01500
C1878       C  0.19510024  0.56518127  0.75359862    -0.10600
C1879       C  0.17599281  0.50505866  0.74736755     0.05900
H1880       H  0.14164891  0.53261904  0.73330409     0.07800
H1881       H  0.14128021  0.57298721  0.73259708     0.11300
H1882       H  0.21011674  0.57410356  0.75928527     0.11500
H1883       H  0.21044623  0.53342044  0.76023234     0.07800
C1884       C  0.19372139  0.49287548  0.73472000    -0.11300
C1885       C  0.19313023  0.46964709  0.73405865    -0.10600
C1886       C  0.17489146  0.45810933  0.74626019    -0.01500
C1887       C  0.15734275  0.47026693  0.75933980    -0.11700
C1888       C  0.15785629  0.49343567  0.75980699    -0.10100
H1889       H  0.20782811  0.50133088  0.72471189     0.07800
H1890       H  0.20688314  0.46071847  0.72382793     0.11500
H1891       H  0.14308439  0.46186414  0.76904516     0.11300
H1892       H  0.14406697  0.50228729  0.77008494     0.07800
C1893       C  0.69296844  0.27476729  0.74114051    -0.11300
C1894       C  0.68767969  0.29625149  0.75124421     0.05900
C1895       C  0.66584350  0.30063884  0.76107538    -0.10000
C1896       C  0.64981747  0.28374526  0.76132671    -0.11700
C1897       C  0.65527906  0.26222130  0.75145756    -0.01500
C1898       C  0.67699083  0.25800300  0.74120595    -0.10600
C1899       C  0.70521380  0.31363624  0.75222487     0.05900
H1900       H  0.66130655  0.31698656  0.76919259     0.07800
H1901       H  0.63320375  0.28748849  0.76933519     0.11300
H1902       H  0.68170673  0.24164028  0.73334482     0.11500
H1903       H  0.70953065  0.27091828  0.73302128     0.07800
C1904       C  0.72651550  0.30833323  0.76293292    -0.11300
C1905       C  0.74333563  0.32423614  0.76338353    -0.10600
C1906       C  0.73933365  0.34590021  0.75316089    -0.01500
C1907       C  0.71803718  0.35134912  0.74249996    -0.11700
C1908       C  0.70109914  0.33538035  0.74214870    -0.10100
H1909       H  0.73015223  0.29184035  0.77123012     0.07800
H1910       H  0.75954486  0.31952558  0.77176452     0.11500
H1911       H  0.71451185  0.36790042  0.73432749     0.11300
H1912       H  0.68491299  0.33990812  0.73350719     0.07800
C1913       C  0.23507314  0.30594870  0.73865658    -0.11300
C1914       C  0.25644560  0.31205208  0.74826544     0.05900
C1915       C  0.26077370  0.33446092  0.75470644    -0.10000
C1916       C  0.24391356  0.35030861  0.75237244    -0.11700
C1917       C  0.22247072  0.34406192  0.74332981    -0.01500
C1918       C  0.21828850  0.32178010  0.73617358    -0.10600
C1919       C  0.27395638  0.29495504  0.75197752     0.05900
H1920       H  0.27704413  0.33963801  0.76231790     0.07800
H1921       H  0.24757533  0.36739139  0.75802538     0.11300
H1922       H  0.20192484  0.31650667  0.72905454     0.11500
H1923       H  0.23133116  0.28888214  0.73301619     0.07800
C1924       C  0.26879195  0.27438145  0.76524087    -0.11300
C1925       C  0.28494246  0.25789205  0.76775453    -0.10600
C1926       C  0.30659445  0.26154646  0.75688968    -0.01500
C1927       C  0.31195962  0.28227993  0.74430955    -0.11700
C1928       C  0.29580908  0.29885947  0.74196044    -0.10100
H1929       H  0.25221269  0.27102696  0.77369516     0.07800
H1930       H  0.28036145  0.24211613  0.77771267     0.11500
H1931       H  0.32854934  0.28555793  0.73584402     0.11300
H1932       H  0.30026095  0.31451322  0.73154407     0.07800
C1933       C  0.45592741  0.23534027  0.76608893    -0.11300
C1934       C  0.46844350  0.21611546  0.76002463     0.05900
C1935       C  0.45711916  0.19629415  0.75371908    -0.10000
C1936       C  0.43393654  0.19567278  0.75331485    -0.11700
C1937       C  0.42137910  0.21480493  0.75945494    -0.01500
C1938       C  0.43261151  0.23466216  0.76599730    -0.10600
C1939       C  0.49319964  0.21648083  0.76004438     0.05900
H1940       H  0.46623660  0.18126531  0.74860967     0.07800
H1941       H  0.42581756  0.18011142  0.74816665     0.11300
H1942       H  0.42338655  0.24966198  0.77087673     0.11500
H1943       H  0.46418598  0.25082299  0.77124585     0.07800
C1944       C  0.50508931  0.23340935  0.74510811    -0.11300
C1945       C  0.52837673  0.23288041  0.74370048    -0.10600
C1946       C  0.54024415  0.21549148  0.75738020    -0.01500
C1947       C  0.52834706  0.19884207  0.77283919    -0.11700
C1948       C  0.50515110  0.19930838  0.77410908    -0.10100
H1949       H  0.49634465  0.24675203  0.73384311     0.07800
H1950       H  0.53707645  0.24592095  0.73161212     0.11500
H1951       H  0.53697779  0.18528931  0.78381066     0.11300
H1952       H  0.49651994  0.18618120  0.78613316     0.07800
C1953       C  0.61628480  0.04086505  0.65765584    -0.11300
C1954       C  0.61632424  0.02918053  0.62973754     0.05900
C1955       C  0.61524714  0.04116169  0.60222382    -0.10000
C1956       C  0.61335637  0.06417404  0.60261136    -0.11700
C1957       C  0.61282480  0.07575635  0.63047737    -0.01500
C1958       C  0.61470706  0.06398148  0.65800239    -0.10600
C1959       C  0.61648470  0.00459333  0.62925201     0.05900
H1960       H  0.61576892  0.03274846  0.58032262     0.07800
H1961       H  0.61226347  0.07292402  0.58104382     0.11300
H1962       H  0.61432996  0.07258382  0.67977474     0.11500
H1963       H  0.61681147  0.03213321  0.67926306     0.07800
C1964       C  0.62886533  0.99247679  0.65070984    -0.11300
C1965       C  0.62795749  0.96934068  0.65108820    -0.10600
C1966       C  0.61469777  0.95793974  0.62997811    -0.01500
C1967       C  0.60279868  0.96996763  0.60804194    -0.11700
C1968       C  0.60361277  0.99303043  0.60773990    -0.10100
H1969       H  0.63922128  0.00087399  0.66725387     0.07800
H1970       H  0.63736677  0.96040333  0.66814035     0.11500
H1971       H  0.59242507  0.96157136  0.59149236     0.11300
H1972       H  0.59360315  0.00180230  0.59119726     0.07800
C1973       C  0.45550166  0.88761373  0.59815874    -0.11300
C1974       C  0.46699383  0.88935747  0.62602023     0.05900
C1975       C  0.45478865  0.89139031  0.65337211    -0.10000
C1976       C  0.43168175  0.89222508  0.65285046    -0.11700
C1977       C  0.42024145  0.89079235  0.62502083    -0.01500
C1978       C  0.43230229  0.88822161  0.59768575    -0.10600
C1979       C  0.49160112  0.88940786  0.62672554     0.05900
H1980       H  0.46310275  0.89225144  0.67526206     0.07800
H1981       H  0.42274520  0.89391572  0.67429814     0.11300
H1982       H  0.42382111  0.88709016  0.57593569     0.11500
H1983       H  0.46443761  0.88624371  0.57668271     0.07800
C1984       C  0.50398196  0.87538756  0.60739540    -0.11300
C1985       C  0.52715821  0.87526893  0.60863363    -0.10600
C1986       C  0.53833077  0.88912215  0.62926318    -0.01500
C1987       C  0.52600402  0.90328209  0.64834853    -0.11700
C1988       C  0.50290346  0.90346406  0.64704802    -0.10100
H1989       H  0.49575053  0.86422529  0.59170199     0.07800
H1990       H  0.53631679  0.86423706  0.59363709     0.11500
H1991       H  0.53421967  0.91428926  0.66428723     0.11300
H1992       H  0.49389060  0.91478329  0.66179711     0.07800
C1993       C  0.50132572  0.14287436  0.65104115    -0.11300
C1994       C  0.48985021  0.14922105  0.62453702     0.05900
C1995       C  0.50209457  0.15503153  0.59823437    -0.10000
C1996       C  0.52532066  0.15412980  0.59841315    -0.11700
C1997       C  0.53661556  0.14727916  0.62481833    -0.01500
C1998       C  0.52439506  0.14176098  0.65110351    -0.10600
C1999       C  0.46521747  0.14922308  0.62453928     0.05900
H2000       H  0.49373545  0.15981975  0.57738169     0.07800
H2001       H  0.53441285  0.15848653  0.57784472     0.11300
H2002       H  0.53268909  0.13668831  0.67188611     0.11500
H2003       H  0.49246294  0.13883382  0.67191292     0.07800
C2004       C  0.45356621  0.13256246  0.64030199    -0.11300
C2005       C  0.43047253  0.13272813  0.64150282    -0.10600
C2006       C  0.41843933  0.14935055  0.62658222    -0.01500
C2007       C  0.42992512  0.16586971  0.61037508    -0.11700
C2008       C  0.45314530  0.16585312  0.60943832    -0.10100
H2009       H  0.46230619  0.11922619  0.65158123     0.07800
H2010       H  0.42201235  0.11966495  0.65388715     0.11500
H2011       H  0.42097082  0.17889744  0.59871503     0.11300
H2012       H  0.46163398  0.17903902  0.59736818     0.07800
C2013       C  0.33915908  0.99599883  0.59913974    -0.11300
C2014       C  0.33921988  0.00824688  0.62656640     0.05900
C2015       C  0.34078318  0.99678952  0.65453851    -0.10000
C2016       C  0.34269427  0.97370464  0.65498720    -0.11700
C2017       C  0.34346256  0.96171985  0.62749092    -0.01500
C2018       C  0.34149694  0.97300992  0.59959966    -0.10600
C2019       C  0.33887816  0.03288486  0.62586251     0.05900
H2020       H  0.34121246  0.00568157  0.67606021     0.07800
H2021       H  0.34424016  0.96529293  0.67675748     0.11300
H2022       H  0.34170544  0.96403653  0.57810418     0.11500
H2023       H  0.33743984  0.00418293  0.57724293     0.07800
C2024       C  0.35040699  0.04437646  0.60275906    -0.11300
C2025       C  0.35142967  0.06746667  0.60300860    -0.10600
C2026       C  0.34112925  0.07964969  0.62649501    -0.01500
C2027       C  0.32905931  0.06831530  0.64913557    -0.11700
C2028       C  0.32790360  0.04515495  0.64879609    -0.10100
H2029       H  0.35932535  0.03553768  0.58498197     0.07800
H2030       H  0.36081493  0.07576228  0.58520288     0.11500
H2031       H  0.32079924  0.07732940  0.66735888     0.11300
H2032       H  0.31852972  0.03686646  0.66660087     0.07800
C2033       C  0.00684892  0.65579165  0.65565916    -0.11300
C2034       C  0.99459771  0.66009138  0.62900120     0.05900
C2035       C  0.00597930  0.66523626  0.60177608    -0.10000
C2036       C  0.02911095  0.66483763  0.60079871    -0.11700
C2037       C  0.04128849  0.65954950  0.62709554    -0.01500
C2038       C  0.03003430  0.65562573  0.65473892    -0.10600
C2039       C  0.97013981  0.65766021  0.62901705     0.05900
H2040       H  0.99697366  0.66906308  0.58104712     0.07800
H2041       H  0.03747560  0.66818583  0.57929160     0.11300
H2042       H  0.03911582  0.65141283  0.67525748     0.11500
H2043       H  0.99852165  0.65158378  0.67688283     0.07800
C2044       C  0.95961254  0.64671510  0.60466141    -0.11300
C2045       C  0.93671577  0.64342873  0.60503311    -0.10600
C2046       C  0.92385312  0.65105362  0.62972811    -0.01500
C2047       C  0.93427640  0.66214079  0.65402181    -0.11700
C2048       C  0.95724240  0.66537292  0.65370556    -0.10100
H2049       H  0.96915402  0.64026613  0.58556321     0.07800
H2050       H  0.92907957  0.63489564  0.58596460     0.11500
H2051       H  0.92468048  0.66832764  0.67323711     0.11300
H2052       H  0.96490417  0.67401130  0.67265755     0.07800
C2053       C  0.83134249  0.49287038  0.60563738    -0.11300
C2054       C  0.84745826  0.50500740  0.62168676     0.05900
C2055       C  0.86407178  0.49344521  0.63753469    -0.10000
C2056       C  0.86435909  0.47031702  0.63779775    -0.11700
C2057       C  0.84807528  0.45818176  0.62215461    -0.01500
C2058       C  0.83164272  0.46966354  0.60589221    -0.10600
C2059       C  0.84695201  0.52961784  0.62240936     0.05900
H2060       H  0.87696474  0.50231305  0.64963308     0.07800
H2061       H  0.87737394  0.46192286  0.65025958     0.11300
H2062       H  0.81891486  0.46070655  0.59359345     0.11500
H2063       H  0.81826614  0.50131741  0.59338834     0.07800
C2064       C  0.84259427  0.54199156  0.59582833    -0.11300
C2065       C  0.84345389  0.56519112  0.59651050    -0.10600
C2066       C  0.84872778  0.57636069  0.62376882    -0.01500
C2067       C  0.85230975  0.56401658  0.65048584    -0.11700
C2068       C  0.85141242  0.54093443  0.64982836    -0.10100
H2069       H  0.83916528  0.53372424  0.57434881     0.07800
H2070       H  0.84053186  0.57434500  0.57561275     0.11500
H2071       H  0.85607060  0.57220498  0.67192118     0.11300
H2072       H  0.85431584  0.53189986  0.67082734     0.07800
C2073       C  0.09352836  0.54561263  0.63905253    -0.11300
C2074       C  0.10854159  0.53367367  0.62062040     0.05900
C2075       C  0.12365302  0.54539966  0.60216556    -0.10000
C2076       C  0.12355558  0.56853233  0.60183543    -0.11700
C2077       C  0.10841466  0.58039102  0.62003316    -0.01500
C2078       C  0.09351815  0.56873973  0.63883288    -0.10600
C2079       C  0.10820451  0.50910087  0.62038472     0.05900
H2080       H  0.13567822  0.53669369  0.58812889     0.07800
H2081       H  0.13536421  0.57714176  0.58737805     0.11300
H2082       H  0.08168389  0.57750029  0.65312847     0.11500
H2083       H  0.08148424  0.53708729  0.65322416     0.07800
C2084       C  0.10445738  0.49726570  0.64759850    -0.11300
C2085       C  0.10340373  0.47418533  0.64726069    -0.10600
C2086       C  0.10634029  0.46245172  0.61978339    -0.01500
C2087       C  0.11042715  0.47415484  0.59262703    -0.11700
C2088       C  0.11124371  0.49728652  0.59288815    -0.10100
H2089       H  0.10247886  0.50584117  0.66923069     0.07800
H2090       H  0.10047235  0.46550141  0.66857472     0.11500
H2091       H  0.11267819  0.46544152  0.57113875     0.11300
H2092       H  0.11385057  0.50592718  0.57147534     0.07800
C2093       C  0.00189524  0.38014148  0.59125994    -0.11300
C2094       C  0.98945606  0.38019810  0.61860040     0.05900
C2095       C  0.00067068  0.38238259  0.64662096    -0.10000
C2096       C  0.02370504  0.38472542  0.64727872    -0.11700
C2097       C  0.03595915  0.38525147  0.61994354    -0.01500
C2098       C  0.02490067  0.38281190  0.59192371    -0.10600
C2099       C  0.96483812  0.37915878  0.61790698     0.05900
H2100       H  0.99160991  0.38291126  0.66806262     0.07800
H2101       H  0.03187824  0.38665058  0.66915295     0.11300
H2102       H  0.03404808  0.38290838  0.57051706     0.11500
H2103       H  0.99386359  0.37806696  0.56931629     0.07800
C2104       C  0.95305973  0.39020112  0.59480469    -0.11300
C2105       C  0.92995033  0.39087411  0.59541444    -0.10600
C2106       C  0.91807638  0.38067630  0.61923374    -0.01500
C2107       C  0.92967795  0.36894227  0.64176417    -0.11700
C2108       C  0.95286191  0.36815402  0.64107854    -0.10100
H2109       H  0.96168075  0.39907946  0.57682767     0.07800
H2110       H  0.92139827  0.39995671  0.57765394     0.11500
H2111       H  0.92087223  0.36077634  0.66023334     0.11300
H2112       H  0.96140749  0.35911721  0.65886858     0.07800
loop_ 
_geom_bond_atom_site_label_1 
_geom_bond_atom_site_label_2 
_geom_bond_distance 
_geom_bond_site_symmetry_2 
_ccdc_geom_bond_type 
In1           O3   2.245       .  S
In1           O4   2.223       .  S
In1          O12   2.237       .  S
In1           O6   2.246       .  S
In1           O8   2.237       .  S
In1           O9   2.248       .  S
In1          O10   2.244       .  S
In1          O13   2.232       .  S
C2            O8   1.261       .  A
C2           O10   1.260       .  A
C2          C154   1.461       .  S
O3           C11   1.261       .  A
O4           C11   1.261       .  A
C5           O12   1.259       .  A
C5            O6   1.262       .  A
C5         C1041   1.472       .  S
C7            O9   1.262       .  A
C7           O13   1.259       .  A
C7         C1030   1.472       .  S
C11         C362   1.458       .  S
In14         O16   2.220       .  S
In14         O17   2.250       .  S
In14         O25   2.240       .  S
In14         O19   2.258       .  S
In14         O21   2.233       .  S
In14         O22   2.230       .  S
In14         O23   2.250       .  S
In14         O26   2.250       .  S
C15          O21   1.260       .  A
C15          O23   1.259       .  A
C15         C345   1.461       .  S
O16          C24   1.261       .  A
O17          C24   1.264       .  A
C18          O25   1.260       .  A
C18          O19   1.263       .  A
C18        C1001   1.479       .  S
C20          O22   1.259       .  A
C20          O26   1.260       .  A
C20         C189   1.458       .  S
C24        C1050   1.473       .  S
In27         O29   2.230       .  S
In27         O30   2.251       .  S
In27         O38   2.243       .  S
In27         O32   2.246       .  S
In27         O34   2.231       .  S
In27         O35   2.239       .  S
In27         O36   2.253       .  S
In27         O39   2.243       .  S
C28          O34   1.260       .  A
C28          O36   1.262       .  A
C28         C384   1.462       .  S
O29          C37   1.260       .  A
O30          C37   1.263       .  A
C31          O38   1.259       .  A
C31          O32   1.261       .  A
C31        C1021   1.474       .  S
C33          O35   1.260       .  A
C33          O39   1.257       .  A
C33         C137   1.459       .  S
C37         C981   1.471       .  S
In40         O42   2.245       .  S
In40         O43   2.238       .  S
In40         O51   2.237       .  S
In40         O45   2.241       .  S
In40         O47   2.234       .  S
In40         O48   2.257       .  S
In40         O49   2.250       .  S
In40         O52   2.232       .  S
C41          O47   1.258       .  A
C41          O49   1.259       .  A
C41         C206   1.460       .  S
O42          C50   1.257       .  A
O43          C50   1.259       .  A
C44          O51   1.261       .  A
C44          O45   1.261       .  A
C44         C990   1.473       .  S
C46          O48   1.262       .  A
C46          O52   1.261       .  A
C46        C1010   1.477       .  S
C50         C375   1.457       .  S
In53         O55   2.234       .  S
In53         O56   2.248       .  S
In53         O64   2.236       .  S
In53         O58   2.257       .  S
In53         O60   2.248       .  S
In53         O61   2.229       .  S
In53         O62   2.253       .  S
In53         O65   2.256       .  S
C54          O60   1.260       .  A
C54          O62   1.258       .  A
C54         C111   1.465       .  S
O55          C63   1.261       .  A
O56          C63   1.261       .  A
C57          O64   1.261       .  A
C57          O58   1.264       .  A
C57         C970   1.478       .  S
C59          O61   1.258       .  A
C59          O65   1.260       .  A
C59         C332   1.461       .  S
C63         C950   1.473       .  S
In66         O68   2.243       .  S
In66         O69   2.238       .  S
In66         O77   2.232       .  S
In66         O71   2.255       .  S
In66         O73   2.225       .  S
In66         O74   2.249       .  S
In66         O75   2.257       .  S
In66         O78   2.229       .  S
C67          O73   1.260       .  A
C67          O75   1.261       .  A
C67         C323   1.462       .  S
O68          C76   1.260       .  A
O69          C76   1.260       .  A
C70          O77   1.259       .  A
C70          O71   1.261       .  A
C70         C921   1.473       .  S
C72          O74   1.262       .  A
C72          O78   1.259       .  A
C72         C961   1.470       .  S
C76         C180   1.461       .  S
In79         O81   2.264       .  S
In79         O82   2.239       .  S
In79         O90   2.231       .  S
In79         O84   2.256       .  S
In79         O86   2.235       .  S
In79         O87   2.256       .  S
In79         O88   2.254       .  S
In79         O91   2.229       .  S
C80          O86   1.260       .  A
C80          O88   1.260       .  A
C80         C414   1.464       .  S
O81          C89   1.260       .  A
O82          C89   1.259       .  A
C83          O90   1.260       .  A
C83          O84   1.261       .  A
C83         C941   1.474       .  S
C85          O87   1.262       .  A
C85          O91   1.259       .  A
C85         C901   1.473       .  S
C89         C128   1.467       .  S
In92         O94   2.225       .  S
In92         O95   2.249       .  S
In92        O103   2.221       .  S
In92         O97   2.245       .  S
In92         O99   2.237       .  S
In92        O100   2.238       .  S
In92        O101   2.252       .  S
In92        O104   2.244       .  S
C93          O99   1.258       .  A
C93         O101   1.260       .  A
C93         C163   1.462       .  S
O94         C102   1.260       .  A
O95         C102   1.264       .  A
C96         O103   1.261       .  A
C96          O97   1.264       .  A
C96         C910   1.472       .  S
C98         O100   1.261       .  A
C98         O104   1.260       .  A
C98         C397   1.461       .  S
C102        C930   1.473       .  S
In105       O107   2.251       .  S
In105       O108   2.232       .  S
In105       O116   2.252       .  S
In105       O110   2.262       .  S
In105       O112   2.283       .  S
In105       O113   2.245       .  S
In105       O114   2.244       .  S
In105       O117   2.261       .  S
C106        O112   1.263       .  A
C106        O114   1.258       .  A
C106        C881   1.486       .  S
O107        C115   1.263       .  A
O108        C115   1.259       .  A
C109        O116   1.258       .  A
C109        O110   1.260       .  A
C109        C870   1.479       .  S
C111        O113   1.257       .  A
C111        O117   1.261       .  A
C115        C219   1.460       .  S
In118       O120   2.270       .  S
In118       O121   2.237       .  S
In118       O129   2.253       .  S
In118       O123   2.277       .  S
In118       O125   2.283       .  S
In118       O126   2.238       .  S
In118       O127   2.248       .  S
In118       O130   2.260       .  S
C119        O125   1.263       .  A
C119        O127   1.257       .  A
C119        C890   1.487       .  S
O120        C128   1.262       .  A
O121        C128   1.257       .  A
C122        O129   1.258       .  A
C122        O123   1.260       .  A
C122        C841   1.485       .  S
C124        O126   1.258       .  A
C124        O130   1.262       .  A
C124        C236   1.464       .  S
In131       O133   2.256       .  S
In131       O134   2.224       .  S
In131       O142   2.233       .  S
In131       O136   2.261       .  S
In131       O138   2.278       .  S
In131       O139   2.235       .  S
In131       O140   2.240       .  S
In131       O143   2.252       .  S
C132        O138   1.264       .  A
C132        O140   1.259       .  A
C132        C821   1.485       .  S
O133        C141   1.263       .  A
O134        C141   1.258       .  A
C135        O142   1.257       .  A
C135        O136   1.261       .  A
C135        C801   1.475       .  S
C137        O139   1.257       .  A
C137        O143   1.261       .  A
C141        C288   1.461       .  S
In144       O146   2.252       .  S
In144       O147   2.236       .  S
In144       O155   2.245       .  S
In144       O149   2.256       .  S
In144       O151   2.248       .  S
In144       O152   2.227       .  S
In144       O153   2.271       .  S
In144       O156   2.247       .  S
C145        O151   1.258       .  A
C145        O153   1.263       .  A
C145        C830   1.484       .  S
O146        C154   1.261       .  A
O147        C154   1.258       .  A
C148        O155   1.258       .  A
C148        O149   1.259       .  A
C148        C861   1.477       .  S
C150        O152   1.259       .  A
C150        O156   1.262       .  A
C150        C262   1.456       .  S
In157       O159   2.255       .  S
In157       O160   2.234       .  S
In157       O168   2.246       .  S
In157       O162   2.261       .  S
In157       O164   2.262       .  S
In157       O165   2.242       .  S
In157       O166   2.270       .  S
In157       O169   2.255       .  S
C158        O164   1.257       .  A
C158        O166   1.257       .  A
C158        C781   1.482       .  S
O159        C167   1.263       .  A
O160        C167   1.260       .  A
C161        O168   1.258       .  A
C161        O162   1.259       .  A
C161        C761   1.478       .  S
C163        O165   1.259       .  A
C163        O169   1.260       .  A
C167        C249   1.462       .  S
In170       O172   2.244       .  S
In170       O173   2.239       .  S
In170       O181   2.241       .  S
In170       O175   2.264       .  S
In170       O177   2.262       .  S
In170       O178   2.233       .  S
In170       O179   2.268       .  S
In170       O182   2.257       .  S
C171        O177   1.258       .  A
C171        O179   1.259       .  A
C171        C790   1.483       .  S
O172        C180   1.263       .  A
O173        C180   1.261       .  A
C174        O181   1.257       .  A
C174        O175   1.260       .  A
C174        C810   1.476       .  S
C176        O178   1.259       .  A
C176        O182   1.261       .  A
C176        C223   1.461       .  S
In183       O185   2.258       .  S
In183       O186   2.237       .  S
In183       O194   2.247       .  S
In183       O188   2.271       .  S
In183       O190   2.275       .  S
In183       O191   2.228       .  S
In183       O192   2.251       .  S
In183       O195   2.252       .  S
C184        O190   1.264       .  A
C184        O192   1.258       .  A
C184        C741   1.486       .  S
O185        C193   1.263       .  A
O186        C193   1.258       .  A
C187        O194   1.259       .  A
C187        O188   1.260       .  A
C187        C850   1.483       .  S
C189        O191   1.257       .  A
C189        O195   1.261       .  A
C193        C275   1.464       .  S
In196       O198   2.249       .  S
In196       O199   2.233       .  S
In196       O207   2.242       .  S
In196       O201   2.266       .  S
In196       O203   2.273       .  S
In196       O204   2.231       .  S
In196       O205   2.250       .  S
In196       O208   2.241       .  S
C197        O203   1.263       .  A
C197        O205   1.258       .  A
C197        C750   1.485       .  S
O198        C206   1.262       .  A
O199        C206   1.259       .  A
C200        O207   1.258       .  A
C200        O201   1.260       .  A
C200        C770   1.480       .  S
C202        O204   1.259       .  A
C202        O208   1.261       .  A
C202        C306   1.455       .  S
In209       O211   2.247       .  S
In209       O212   2.236       .  S
In209       O220   2.231       .  S
In209       O214   2.249       .  S
In209       O216   2.231       .  S
In209       O217   2.251       .  S
In209       O218   2.250       .  S
In209       O221   2.236       .  S
C210        O216   1.259       .  A
C210        O218   1.260       .  A
C210        C336   1.460       .  S
O211        C219   1.259       .  A
O212        C219   1.260       .  A
C213        O220   1.260       .  A
C213        O214   1.261       .  A
C213        C701   1.471       .  S
C215        O217   1.261       .  A
C215        O221   1.260       .  A
C215        C721   1.474       .  S
In222       O224   2.214       .  S
In222       O225   2.274       .  S
In222       O233   2.222       .  S
In222       O227   2.249       .  S
In222       O229   2.234       .  S
In222       O230   2.244       .  S
In222       O231   2.260       .  S
In222       O234   2.249       .  S
C223        O229   1.256       .  A
C223        O231   1.260       .  A
O224        C232   1.258       .  A
O225        C232   1.264       .  A
C226        O233   1.262       .  A
C226        O227   1.265       .  A
C226        C730   1.474       .  S
C228        O230   1.261       .  A
C228        O234   1.260       .  A
C228        C319   1.464       .  S
C232        C681   1.476       .  S
In235       O237   2.222       .  S
In235       O238   2.252       .  S
In235       O246   2.229       .  S
In235       O240   2.255       .  S
In235       O242   2.242       .  S
In235       O243   2.236       .  S
In235       O244   2.256       .  S
In235       O247   2.259       .  S
C236        O242   1.259       .  A
C236        O244   1.259       .  A
O237        C245   1.261       .  A
O238        C245   1.263       .  A
C239        O246   1.260       .  A
C239        O240   1.263       .  A
C239        C670   1.474       .  S
C241        O243   1.258       .  A
C241        O247   1.259       .  A
C241        C410   1.463       .  S
C245        C710   1.472       .  S
In248       O250   2.257       .  S
In248       O251   2.233       .  S
In248       O259   2.229       .  S
In248       O253   2.244       .  S
In248       O255   2.231       .  S
In248       O256   2.257       .  S
In248       O257   2.254       .  S
In248       O260   2.234       .  S
C249        O255   1.258       .  A
C249        O257   1.261       .  A
O250        C258   1.260       .  A
O251        C258   1.259       .  A
C252        O259   1.260       .  A
C252        O253   1.261       .  A
C252        C661   1.471       .  S
C254        O256   1.262       .  A
C254        O260   1.260       .  A
C254        C690   1.475       .  S
C258        C401   1.463       .  S
In261       O263   2.235       .  S
In261       O264   2.256       .  S
In261       O272   2.223       .  S
In261       O266   2.241       .  S
In261       O268   2.227       .  S
In261       O269   2.237       .  S
In261       O270   2.247       .  S
In261       O273   2.251       .  S
C262        O268   1.258       .  A
C262        O270   1.260       .  A
O263        C271   1.260       .  A
O264        C271   1.264       .  A
C265        O272   1.261       .  A
C265        O266   1.263       .  A
C265        C641   1.469       .  S
C267        O269   1.260       .  A
C267        O273   1.259       .  A
C267        C358   1.462       .  S
C271        C630   1.478       .  S
In274       O276   2.250       .  S
In274       O277   2.233       .  S
In274       O285   2.233       .  S
In274       O279   2.244       .  S
In274       O281   2.241       .  S
In274       O282   2.250       .  S
In274       O283   2.249       .  S
In274       O286   2.239       .  S
C275        O281   1.261       .  A
C275        O283   1.259       .  A
O276        C284   1.260       .  A
O277        C284   1.260       .  A
C278        O285   1.260       .  A
C278        O279   1.262       .  A
C278        C650   1.470       .  S
C280        O282   1.262       .  A
C280        O286   1.261       .  A
C280        C601   1.477       .  S
C284        C349   1.462       .  S
In287       O289   2.254       .  S
In287       O290   2.248       .  S
In287       O298   2.234       .  S
In287       O292   2.249       .  S
In287       O294   2.230       .  S
In287       O295   2.256       .  S
In287       O296   2.258       .  S
In287       O299   2.234       .  S
C288        O294   1.258       .  A
C288        O296   1.260       .  A
O289        C297   1.258       .  A
O290        C297   1.260       .  A
C291        O298   1.261       .  A
C291        O292   1.262       .  A
C291        C581   1.475       .  S
C293        O295   1.264       .  A
C293        O299   1.261       .  A
C293        C621   1.477       .  S
C297        C388   1.465       .  S
In300       O302   2.229       .  S
In300       O303   2.245       .  S
In300       O311   2.248       .  S
In300       O305   2.257       .  S
In300       O307   2.227       .  S
In300       O308   2.233       .  S
In300       O309   2.256       .  S
In300       O312   2.242       .  S
C301        O307   1.258       .  A
C301        O309   1.260       .  A
C301        C371   1.458       .  S
O302        C310   1.262       .  A
O303        C310   1.263       .  A
C304        O311   1.259       .  A
C304        O305   1.261       .  A
C304        C610   1.478       .  S
C306        O308   1.258       .  A
C306        O312   1.258       .  A
C310        C590   1.472       .  S
In313       O315   2.268   1_556  S
In313       O316   2.226   1_556  S
In313       O324   2.248   1_556  S
In313       O320   2.275   1_556  S
In313      O1374   2.270       .  S
In313      O1377   2.242       .  S
In313      O1378   2.249       .  S
In313      O1381   2.258       .  S
C314        O322   1.260       .  A
C314       O1376   1.264       .  A
C314        C570   1.486       .  S
O315        C323   1.262       .  A
O316        C323   1.257       .  A
C317        O324   1.257   1_556  A
C317       O1374   1.261       .  A
C317        C550   1.482       .  S
O318      In1369   2.270       .  S
O318       C1373   1.261       .  A
C319        O321   1.257       .  A
C319        O325   1.261       .  A
O320       C1370   1.264       .  A
O321      In1369   2.242       .  S
O322      In1369   2.249       .  S
O325      In1369   2.258       .  S
In326       O328   2.254       .  S
In326       O329   2.230       .  S
In326       O337   2.250       .  S
In326       O333   2.280       .  S
In326      O1387   2.252       .  S
In326      O1390   2.232       .  S
In326      O1391   2.244       .  S
In326      O1394   2.258       .  S
C327        O333   1.263       .  A
C327       O1391   1.258       .  A
C327        C561   1.485       .  S
O328        C336   1.262       .  A
O329        C336   1.258       .  A
C330        O337   1.258       .  A
C330       O1387   1.260       .  A
C330        C530   1.477       .  S
O331      In1382   2.252       .  S
O331       C1386   1.260   1_554  A
C332        O334   1.258       .  A
C332        O338   1.261       .  A
O334      In1382   2.232       .  S
O335      In1382   2.244       .  S
O335       C1383   1.258       .  A
O338      In1382   2.258       .  S
In339       O350   2.250       .  S
In339       O344   2.267   1_556  S
In339       O346   2.250   1_556  S
In339       O347   2.235   1_556  S
In339       O348   2.287       .  S
In339       O351   2.258   1_556  S
In339      O1397   2.258       .  S
In339      O1398   2.231       .  S
C340        O346   1.257       .  A
C340        O348   1.263   1_554  A
C340        C510   1.488       .  S
O341      In1395   2.258       .  S
O341        C349   1.263       .  A
O342      In1395   2.231       .  S
O342        C349   1.258       .  A
C343        O350   1.258       .  A
C343        O344   1.260   1_556  A
C343        C481   1.482       .  S
C345        O347   1.257       .  A
C345        O351   1.262       .  A
In352       O363   2.242       .  S
In352       O357   2.260       .  S
In352       O359   2.243       .  S
In352       O360   2.238       .  S
In352       O361   2.276       .  S
In352       O364   2.259       .  S
In352      O1410   2.257       .  S
In352      O1411   2.225       .  S
C353        O359   1.258       .  A
C353        O361   1.263       .  A
C353        C501   1.485       .  S
O354      In1408   2.257   1_554  S
O354        C362   1.262       .  A
O355      In1408   2.225   1_554  S
O355        C362   1.257       .  A
C356        O363   1.258       .  A
C356        O357   1.260       .  A
C356        C521   1.478       .  S
C358        O360   1.256       .  A
C358        O364   1.261       .  A
In365       O367   2.247       .  S
In365       O368   2.231       .  S
In365       O376   2.238       .  S
In365       O372   2.277       .  S
In365      O1426   2.258   1_554  S
In365      O1429   2.223   1_554  S
In365      O1430   2.239   1_554  S
In365      O1433   2.256   1_554  S
C366        O374   1.258       .  A
C366       O1428   1.263       .  A
C366        C461   1.483       .  S
O367        C375   1.261       .  A
O368        C375   1.257       .  A
C369        O376   1.257       .  A
C369       O1426   1.260   1_554  A
C369        C441   1.475       .  S
O370      In1421   2.257       .  S
O370       C1425   1.260       .  A
C371        O373   1.258       .  A
C371        O377   1.263       .  A
O372       C1422   1.263       .  A
O373      In1421   2.223       .  S
O374      In1421   2.239       .  S
O377      In1421   2.256       .  S
In378       O389   2.255       .  S
In378       O383   2.274   1_556  S
In378       O385   2.281       .  S
In378       O386   2.235   1_556  S
In378       O387   2.248   1_556  S
In378       O390   2.261   1_556  S
In378      O1436   2.260       .  S
In378      O1437   2.240       .  S
C379        O385   1.263       .  A
C379        O387   1.258   1_556  A
C379        C470   1.486       .  S
O380      In1434   2.260       .  S
O380        C388   1.263       .  A
O381      In1434   2.240       .  S
O381        C388   1.257       .  A
C382        O389   1.258       .  A
C382        O383   1.260   1_556  A
C382        C541   1.485       .  S
C384        O386   1.257       .  A
C384        O390   1.261       .  A
In391       O402   2.242   1_554  S
In391       O396   2.262       .  S
In391       O398   2.274       .  S
In391       O399   2.239       .  S
In391       O400   2.238       .  S
In391       O403   2.254       .  S
In391      O1449   2.260   1_554  S
In391      O1450   2.228   1_554  S
C392        O398   1.263       .  A
C392        O400   1.258       .  A
C392        C421   1.482       .  S
O393      In1447   2.260       .  S
O393        C401   1.263       .  A
O394      In1447   2.228       .  S
O394        C401   1.258       .  A
C395        O402   1.258   1_554  A
C395        O396   1.260       .  A
C395        C450   1.477       .  S
C397        O399   1.257       .  A
C397        O403   1.261       .  A
In404       O406   2.268       .  S
In404       O407   2.240       .  S
In404       O415   2.251       .  S
In404       O409   2.274   1_554  S
In404       O411   2.275       .  S
In404       O413   2.248   1_554  S
In404      O1468   2.229   1_554  S
In404      O1472   2.257   1_554  S
C405        O411   1.262       .  A
C405        O413   1.257   1_554  A
C405        C430   1.483       .  S
O406        C414   1.260       .  A
O407        C414   1.256       .  A
C408        O415   1.258       .  A
C408        O409   1.260   1_554  A
C408        C490   1.484       .  S
C410        O412   1.259       .  A
C410        O416   1.264       .  A
O412      In1460   2.229       .  S
O416      In1460   2.257       .  S
C417        C418   1.406   1_565  A
C417        C422   1.396       .  A
C417        H427   1.083   1_565  S
C418        C423   1.490       .  S
C418       C1475   1.408   1_545  A
C419        C420   1.404       .  A
C419       C1474   1.408   1_565  A
C419        H424   1.083   1_565  S
C420       C1477   1.405       .  A
C420        H425   1.083       .  S
C421        C422   1.405       .  A
C421       C1476   1.405       .  A
C422        H426   1.083       .  S
C423        C428   1.406   1_554  A
C423       C1488   1.407       .  A
C428        C429   1.397       .  A
C428        H433   1.083       .  S
C429        C430   1.405   1_556  A
C429        H434   1.083       .  S
C430       C1487   1.405       .  A
C431        C432   1.403       .  A
C431       C1486   1.405       .  A
C431        H435   1.083       .  S
C432       C1479   1.407       .  A
C432        H436   1.083       .  S
C437        C438   1.404       .  A
C437        C442   1.395       .  A
C437        H447   1.083       .  S
C438        C443   1.481       .  S
C438       C1495   1.405   1_554  A
C439        C440   1.400       .  A
C439       C1494   1.405       .  A
C439        H444   1.083       .  S
C440       C1497   1.405       .  A
C440        H445   1.083       .  S
C441        C442   1.404       .  A
C441       C1496   1.405   1_554  A
C442        H446   1.083       .  S
C443        C452   1.405       .  A
C443       C1504   1.404   1_554  A
C448        C449   1.395       .  A
C448       C1499   1.404       .  A
C448        H453   1.083       .  S
C449       C1506   1.404       .  A
C449        H454   1.083       .  S
C450        C451   1.405       .  A
C450       C1505   1.404   1_554  A
C451        C452   1.400       .  A
C451        H455   1.083       .  S
C452        H456   1.083       .  S
C457        C462   1.397       .  A
C457       C1514   1.405       .  A
C457        H467   1.083       .  S
C458        C463   1.490       .  S
C458        C459   1.408   1_556  A
C458       C1513   1.405       .  A
C459        C460   1.405       .  A
C459        H464   1.083       .  S
C460       C1517   1.406       .  A
C460        H465   1.083       .  S
C461        C462   1.405       .  A
C461       C1516   1.406       .  A
C462        H466   1.083       .  S
C463        C472   1.407   1_655  A
C463       C1524   1.406   1_656  A
C468        C469   1.398       .  A
C468       C1519   1.406   1_455  A
C468        H473   1.083   1_455  S
C469       C1526   1.406       .  A
C469        H474   1.083       .  S
C470        C471   1.406       .  A
C470       C1525   1.406   1_556  A
C471        C472   1.405       .  A
C471        H475   1.083       .  S
C472        H476   1.083   1_455  S
C477        C478   1.407   1_554  A
C477        C482   1.402       .  A
C477        H487   1.083       .  S
C478        C483   1.492       .  S
C478       C1535   1.407       .  A
C479        C480   1.399       .  A
C479       C1534   1.407       .  A
C479        H484   1.083       .  S
C480       C1537   1.405       .  A
C480        H485   1.083       .  S
C481        C482   1.405   1_556  A
C481       C1536   1.405       .  A
C482        H486   1.083       .  S
C483        C488   1.408       .  A
C483       C1548   1.406   1_556  A
C488        C489   1.404       .  A
C488        H493   1.083       .  S
C489        C490   1.406   1_556  A
C489        H494   1.083       .  S
C490       C1547   1.404       .  A
C491        C492   1.398       .  A
C491       C1546   1.404       .  A
C491        H495   1.083       .  S
C492       C1539   1.406       .  A
C492        H496   1.083       .  S
C497        C502   1.398       .  A
C497       C1554   1.407   1_456  A
C497        H507   1.083   1_455  S
C498       C1559   1.496       .  S
C498        C499   1.409   1_655  A
C498       C1553   1.407   1_655  A
C499        C500   1.405       .  A
C499        H504   1.082   1_455  S
C500        C501   1.406       .  A
C500        H505   1.083       .  S
C501       C1558   1.405       .  A
C502       C1557   1.405   1_556  A
C502        H506   1.083       .  S
C503       C1554   1.496       .  S
C503        C512   1.409   1_554  A
C503       C1564   1.407       .  A
C508        C509   1.399       .  A
C508       C1559   1.407       .  A
C508        H513   1.083       .  S
C509       C1566   1.406       .  A
C509        H514   1.083       .  S
C510        C511   1.406   1_554  A
C510       C1565   1.406       .  A
C511        C512   1.406       .  A
C511        H515   1.083       .  S
C512        H516   1.083       .  S
C517        C522   1.396       .  A
C517       C1574   1.405   1_554  A
C517        H527   1.083       .  S
C518        C523   1.484       .  S
C518        C519   1.406       .  A
C518       C1573   1.405       .  A
C519        C520   1.400       .  A
C519        H524   1.083       .  S
C520        C521   1.405       .  A
C520        H525   1.083       .  S
C521       C1578   1.404       .  A
C522       C1577   1.404       .  A
C522        H526   1.083       .  S
C523        C532   1.405       .  A
C523       C1584   1.406       .  A
C528        C529   1.397       .  A
C528       C1579   1.406       .  A
C528        H533   1.083       .  S
C529       C1586   1.404       .  A
C529        H534   1.083       .  S
C530        C531   1.404       .  A
C530       C1585   1.404       .  A
C531        C532   1.399       .  A
C531        H535   1.083       .  S
C532        H536   1.083       .  S
C537        C538   1.407   1_554  A
C537        C542   1.403       .  A
C537        H547   1.083       .  S
C538        C543   1.491       .  S
C538       C1595   1.406       .  A
C539        C540   1.399       .  A
C539       C1594   1.406       .  A
C539        H544   1.083       .  S
C540       C1597   1.406       .  A
C540        H545   1.083       .  S
C541        C542   1.406   1_556  A
C541       C1596   1.406       .  A
C542        H546   1.083       .  S
C543        C548   1.407       .  A
C543       C1608   1.406   1_556  A
C548        C549   1.403       .  A
C548        H553   1.083       .  S
C549        C550   1.405       .  A
C549        H554   1.083       .  S
C550       C1607   1.405   1_556  A
C551        C552   1.398       .  A
C551       C1606   1.405       .  A
C551        H555   1.083       .  S
C552       C1599   1.406       .  A
C552        H556   1.083       .  S
C557        C562   1.398       .  A
C557       C1614   1.407       .  A
C557        H567   1.083       .  S
C558        C563   1.494       .  S
C558        C559   1.409       .  A
C558       C1613   1.407       .  A
C559        C560   1.405       .  A
C559        H564   1.083       .  S
C560        C561   1.406       .  A
C560        H565   1.083       .  S
C561       C1618   1.405       .  A
C562       C1617   1.405       .  A
C562        H566   1.083       .  S
C563        C572   1.408   1_545  A
C563       C1624   1.407   1_545  A
C568        C569   1.399       .  A
C568       C1619   1.407   1_566  A
C568        H573   1.083   1_565  S
C569       C1626   1.405   1_556  A
C569        H574   1.083       .  S
C570        C571   1.406       .  A
C570       C1625   1.405       .  A
C571        C572   1.405       .  A
C571        H575   1.083       .  S
C572        H576   1.083   1_565  S
C577        C578   1.405   1_455  A
C577        C582   1.394       .  A
C577        H587   1.083   1_455  S
C578        C583   1.483       .  S
C578        C579   1.406   1_655  A
C579        C580   1.400       .  A
C579        H584   1.083   1_455  S
C580        C581   1.405       .  A
C580        H585   1.083       .  S
C581        C582   1.403       .  A
C582        H586   1.083       .  S
C583        C588   1.406       .  A
C583        C592   1.406       .  A
C588        C589   1.399       .  A
C588        H593   1.083       .  S
C589        C590   1.404       .  A
C589        H594   1.083       .  S
C590        C591   1.402       .  A
C591        C592   1.394       .  A
C591        H595   1.083       .  S
C592        H596   1.083       .  S
C597        C598   1.407       .  A
C597        C602   1.400       .  A
C597        H607   1.083       .  S
C598        C603   1.488       .  S
C598        C599   1.406       .  A
C599        C600   1.396       .  A
C599        H604   1.083       .  S
C600        C601   1.404       .  A
C600        H605   1.083       .  S
C601        C602   1.404       .  A
C602        H606   1.083       .  S
C603        C608   1.406       .  A
C603        C612   1.407       .  A
C608        C609   1.400       .  A
C608        H613   1.083       .  S
C609        C610   1.404       .  A
C609        H614   1.083       .  S
C610        C611   1.404       .  A
C611        C612   1.397       .  A
C611        H615   1.083       .  S
C612        H616   1.083       .  S
C617        C618   1.407       .  A
C617        C622   1.396       .  A
C617        H627   1.083       .  S
C618        C623   1.490       .  S
C618        C619   1.408       .  A
C619        C620   1.401       .  A
C619        H624   1.082       .  S
C620        C621   1.404       .  A
C620        H625   1.083       .  S
C621        C622   1.403       .  A
C622        H626   1.083       .  S
C623        C628   1.407       .  A
C623        C632   1.408       .  A
C628        C629   1.396       .  A
C628        H633   1.082       .  S
C629        C630   1.404       .  A
C629        H634   1.083       .  S
C630        C631   1.404       .  A
C631        C632   1.401       .  A
C631        H635   1.083       .  S
C632        H636   1.083       .  S
C637        C638   1.404   1_455  A
C637        C642   1.393       .  A
C637        H647   1.083   1_455  S
C638        C643   1.477       .  S
C638        C639   1.405   1_655  A
C639        C640   1.397       .  A
C639        H644   1.083   1_455  S
C640        C641   1.403       .  A
C640        H645   1.083       .  S
C641        C642   1.403       .  A
C642        H646   1.083       .  S
C643        C648   1.404       .  A
C643        C652   1.404       .  A
C648        C649   1.395       .  A
C648        H653   1.083       .  S
C649        C650   1.404       .  A
C649        H654   1.083       .  S
C650        C651   1.403       .  A
C651        C652   1.396       .  A
C651        H655   1.083       .  S
C652        H656   1.083       .  S
C657        C658   1.408   1_565  A
C657        C662   1.399       .  A
C657        H667   1.082   1_565  S
C658        C663   1.487       .  S
C658        C659   1.407   1_545  A
C659        C660   1.393       .  A
C659        H664   1.082   1_565  S
C660        C661   1.401       .  A
C660        H665   1.083       .  S
C661        C662   1.403       .  A
C662        H666   1.083       .  S
C663        C668   1.408       .  A
C663        C672   1.406       .  A
C668        C669   1.400       .  A
C668        H673   1.082       .  S
C669        C670   1.403       .  A
C669        H674   1.083       .  S
C670        C671   1.402       .  A
C671        C672   1.393       .  A
C671        H675   1.083       .  S
C672        H676   1.082       .  S
C677        C678   1.403       .  A
C677        C682   1.391       .  A
C677        H687   1.083       .  S
C678        C683   1.483       .  S
C678        C679   1.408       .  A
C679        C680   1.404       .  A
C679        H684   1.083       .  S
C680        C681   1.405       .  A
C680        H685   1.083       .  S
C681        C682   1.403       .  A
C682        H686   1.083       .  S
C683        C688   1.406       .  A
C683        C692   1.406       .  A
C688        C689   1.394       .  A
C688        H693   1.083       .  S
C689        C690   1.403       .  A
C689        H694   1.083       .  S
C690        C691   1.405       .  A
C691        C692   1.401       .  A
C691        H695   1.083       .  S
C692        H696   1.083       .  S
C697        C698   1.406       .  A
C697        C702   1.399       .  A
C697        H707   1.083       .  S
C698        C703   1.482       .  S
C698        C699   1.406       .  A
C699        C700   1.394       .  A
C699        H704   1.083       .  S
C700        C701   1.402       .  A
C700        H705   1.083       .  S
C701        C702   1.403       .  A
C702        H706   1.083       .  S
C703        C708   1.407       .  A
C703        C712   1.405       .  A
C708        C709   1.400       .  A
C708        H713   1.083       .  S
C709        C710   1.404       .  A
C709        H714   1.083       .  S
C710        C711   1.402       .  A
C711        C712   1.391       .  A
C711        H715   1.083       .  S
C712        H716   1.083       .  S
C717        C718   1.406       .  A
C717        C722   1.395       .  A
C717        H727   1.083       .  S
C718        C723   1.485       .  S
C718        C719   1.407       .  A
C719        C720   1.399       .  A
C719        H724   1.083       .  S
C720        C721   1.404       .  A
C720        H725   1.083       .  S
C721        C722   1.403       .  A
C722        H726   1.083       .  S
C723        C728   1.405   1_545  A
C723        C732   1.407   1_545  A
C728        C729   1.394       .  A
C728        H733   1.083   1_565  S
C729        C730   1.403       .  A
C729        H734   1.083       .  S
C730        C731   1.404       .  A
C731        C732   1.400       .  A
C731        H735   1.083       .  S
C732        H736   1.083   1_565  S
C737        C738   1.407       .  A
C737        C742   1.400       .  A
C737        H747   1.083       .  S
C738        C743   1.495       .  S
C738        C739   1.408       .  A
C739        C740   1.403       .  A
C739        H744   1.083       .  S
C740        C741   1.405       .  A
C740        H745   1.083       .  S
C741        C742   1.406       .  A
C742        H746   1.083       .  S
C743        C748   1.407       .  A
C743        C752   1.408       .  A
C748        C749   1.400       .  A
C748        H753   1.083       .  S
C749        C750   1.406       .  A
C749        H754   1.083       .  S
C750        C751   1.405       .  A
C751        C752   1.403       .  A
C751        H755   1.083       .  S
C752        H756   1.083       .  S
C757        C758   1.409       .  A
C757        C762   1.396       .  A
C757        H767   1.082       .  S
C758        C763   1.496       .  S
C758        C759   1.410       .  A
C759        C760   1.402       .  A
C759        H764   1.082       .  S
C760        C761   1.405       .  A
C760        H765   1.083       .  S
C761        C762   1.402       .  A
C762        H766   1.083       .  S
C763        C768   1.408       .  A
C763        C772   1.410       .  A
C768        C769   1.395       .  A
C768        H773   1.082       .  S
C769        C770   1.402       .  A
C769        H774   1.083       .  S
C770        C771   1.405       .  A
C771        C772   1.403       .  A
C771        H775   1.083       .  S
C772        H776   1.082       .  S
C777        C778   1.409       .  A
C777        C782   1.401       .  A
C777        H787   1.083       .  S
C778        C783   1.495       .  S
C778        C779   1.408       .  A
C779        C780   1.400       .  A
C779        H784   1.083       .  S
C780        C781   1.404       .  A
C780        H785   1.083       .  S
C781        C782   1.405       .  A
C782        H786   1.083       .  S
C783        C788   1.408       .  A
C783        C792   1.408       .  A
C788        C789   1.402       .  A
C788        H793   1.082       .  S
C789        C790   1.405       .  A
C789        H794   1.083       .  S
C790        C791   1.405       .  A
C791        C792   1.400       .  A
C791        H795   1.083       .  S
C792        H796   1.083       .  S
C797        C798   1.407       .  A
C797        C802   1.400       .  A
C797        H807   1.083       .  S
C798        C803   1.487       .  S
C798        C799   1.406       .  A
C799        C800   1.394       .  A
C799        H804   1.082       .  S
C800        C801   1.403       .  A
C800        H805   1.083       .  S
C801        C802   1.404       .  A
C802        H806   1.083       .  S
C803        C808   1.407       .  A
C803        C812   1.406       .  A
C808        C809   1.400       .  A
C808        H813   1.083       .  S
C809        C810   1.404       .  A
C809        H814   1.083       .  S
C810        C811   1.403       .  A
C811        C812   1.395       .  A
C811        H815   1.083       .  S
C812        H816   1.083       .  S
C817        C818   1.408       .  A
C817        C822   1.405       .  A
C817        H827   1.083       .  S
C818        C823   1.492       .  S
C818        C819   1.406       .  A
C819        C820   1.398       .  A
C819        H824   1.083       .  S
C820        C821   1.406       .  A
C820        H825   1.083       .  S
C821        C822   1.406       .  A
C822        H826   1.083       .  S
C823        C828   1.407       .  A
C823        C832   1.407       .  A
C828        C829   1.403       .  A
C828        H833   1.083       .  S
C829        C830   1.405       .  A
C829        H834   1.083       .  S
C830        C831   1.406       .  A
C831        C832   1.399       .  A
C831        H835   1.083       .  S
C832        H836   1.083       .  S
C837        C838   1.406       .  A
C837        C842   1.397       .  A
C837        H847   1.083       .  S
C838        C843   1.490       .  S
C838        C839   1.408       .  A
C839        C840   1.405       .  A
C839        H844   1.083       .  S
C840        C841   1.407       .  A
C840        H845   1.083       .  S
C841        C842   1.404       .  A
C842        H846   1.083       .  S
C843        C848   1.406       .  A
C843        C852   1.408       .  A
C848        C849   1.397       .  A
C848        H853   1.083       .  S
C849        C850   1.404       .  A
C849        H854   1.083       .  S
C850        C851   1.407       .  A
C851        C852   1.404       .  A
C851        H855   1.083       .  S
C852        H856   1.083       .  S
C857        C858   1.406       .  A
C857        C862   1.396       .  A
C857        H867   1.083       .  S
C858        C863   1.486       .  S
C858        C859   1.406       .  A
C859        C860   1.400       .  A
C859        H864   1.083       .  S
C860        C861   1.405       .  A
C860        H865   1.083       .  S
C861        C862   1.404       .  A
C862        H866   1.083       .  S
C863        C868   1.406       .  A
C863        C872   1.406       .  A
C868        C869   1.397       .  A
C868        H873   1.083       .  S
C869        C870   1.404       .  A
C869        H874   1.083       .  S
C870        C871   1.405       .  A
C871        C872   1.400       .  A
C871        H875   1.083       .  S
C872        H876   1.083       .  S
C877        C878   1.408       .  A
C877        C882   1.406       .  A
C877        H887   1.083       .  S
C878        C883   1.492       .  S
C878        C879   1.405       .  A
C879        C880   1.398       .  A
C879        H884   1.083       .  S
C880        C881   1.406       .  A
C880        H885   1.083       .  S
C881        C882   1.407       .  A
C882        H886   1.083       .  S
C883        C888   1.408       .  A
C883        C892   1.406       .  A
C888        C889   1.405       .  A
C888        H893   1.083       .  S
C889        C890   1.406       .  A
C889        H894   1.083       .  S
C890        C891   1.407       .  A
C891        C892   1.399       .  A
C891        H895   1.083       .  S
C892        H896   1.083       .  S
C897        C898   1.408       .  A
C897        C902   1.399       .  A
C897        H907   1.082       .  S
C898        C903   1.485       .  S
C898        C899   1.405       .  A
C899        C900   1.394       .  A
C899        H904   1.083       .  S
C900        C901   1.403       .  A
C900        H905   1.083       .  S
C901        C902   1.403       .  A
C902        H906   1.083       .  S
C903        C908   1.407   1_545  A
C903        C912   1.406   1_545  A
C908        C909   1.398       .  A
C908        H913   1.083   1_565  S
C909        C910   1.403       .  A
C909        H914   1.083       .  S
C910        C911   1.403       .  A
C911        C912   1.393       .  A
C911        H915   1.083       .  S
C912        H916   1.082   1_565  S
C917        C918   1.407       .  A
C917        C922   1.399       .  A
C917        H927   1.083       .  S
C918        C923   1.484       .  S
C918        C919   1.405       .  A
C919        C920   1.394       .  A
C919        H924   1.083       .  S
C920        C921   1.403       .  A
C920        H925   1.083       .  S
C921        C922   1.403       .  A
C922        H926   1.083       .  S
C923        C928   1.406       .  A
C923        C932   1.406       .  A
C928        C929   1.398       .  A
C928        H933   1.083       .  S
C929        C930   1.403       .  A
C929        H934   1.083       .  S
C930        C931   1.403       .  A
C931        C932   1.394       .  A
C931        H935   1.083       .  S
C932        H936   1.083       .  S
C937        C938   1.405       .  A
C937        C942   1.392       .  A
C937        H947   1.083       .  S
C938        C943   1.485       .  S
C938        C939   1.408       .  A
C939        C940   1.401       .  A
C939        H944   1.083       .  S
C940        C941   1.405       .  A
C940        H945   1.083       .  S
C941        C942   1.402       .  A
C942        H946   1.083       .  S
C943        C948   1.406       .  A
C943        C952   1.407       .  A
C948        C949   1.393       .  A
C948        H953   1.083       .  S
C949        C950   1.401       .  A
C949        H954   1.083       .  S
C950        C951   1.405       .  A
C951        C952   1.400       .  A
C951        H955   1.083       .  S
C952        H956   1.083       .  S
C957        C958   1.407   1_565  A
C957        C962   1.395       .  A
C957        H967   1.083   1_565  S
C958        C963   1.488       .  S
C958        C959   1.409   1_545  A
C959        C960   1.399       .  A
C959        H964   1.082   1_565  S
C960        C961   1.402       .  A
C960        H965   1.083       .  S
C961        C962   1.402       .  A
C962        H966   1.083       .  S
C963        C968   1.407       .  A
C963        C972   1.408       .  A
C968        C969   1.395       .  A
C968        H973   1.082       .  S
C969        C970   1.404       .  A
C969        H974   1.083       .  S
C970        C971   1.404       .  A
C971        C972   1.400       .  A
C971        H975   1.083       .  S
C972        H976   1.082       .  S
C977        C978   1.406   1_455  A
C977        C982   1.398       .  A
C977        H987   1.083   1_455  S
C978        C983   1.482       .  S
C978        C979   1.405   1_655  A
C979        C980   1.395       .  A
C979        H984   1.083   1_455  S
C980        C981   1.403       .  A
C980        H985   1.083       .  S
C981        C982   1.403       .  A
C982        H986   1.083       .  S
C983        C988   1.405       .  A
C983        C992   1.405       .  A
C988        C989   1.394       .  A
C988        H993   1.083       .  S
C989        C990   1.403       .  A
C989        H994   1.083       .  S
C990        C991   1.405       .  A
C991        C992   1.398       .  A
C991        H995   1.083       .  S
C992        H996   1.083       .  S
C997        C998   1.406       .  A
C997       C1002   1.401       .  A
C997       H1007   1.083       .  S
C998       C1003   1.486       .  S
C998        C999   1.406       .  A
C999       C1000   1.396       .  A
C999       H1004   1.083       .  S
C1000      C1001   1.404       .  A
C1000      H1005   1.083       .  S
C1001      C1002   1.405       .  A
C1002      H1006   1.083       .  S
C1003      C1008   1.407       .  A
C1003      C1012   1.405       .  A
C1008      C1009   1.402       .  A
C1008      H1013   1.083       .  S
C1009      C1010   1.405       .  A
C1009      H1014   1.083       .  S
C1010      C1011   1.403       .  A
C1011      C1012   1.395       .  A
C1011      H1015   1.083       .  S
C1012      H1016   1.083       .  S
C1017      C1018   1.406       .  A
C1017      C1022   1.396       .  A
C1017      H1027   1.083       .  S
C1018      C1023   1.484       .  S
C1018      C1019   1.406       .  A
C1019      C1020   1.397       .  A
C1019      H1024   1.083       .  S
C1020      C1021   1.403       .  A
C1020      H1025   1.083       .  S
C1021      C1022   1.404       .  A
C1022      H1026   1.083       .  S
C1023      C1028   1.405       .  A
C1023      C1032   1.407       .  A
C1028      C1029   1.395       .  A
C1028      H1033   1.083       .  S
C1029      C1030   1.403       .  A
C1029      H1034   1.083       .  S
C1030      C1031   1.403       .  A
C1031      C1032   1.397       .  A
C1031      H1035   1.083       .  S
C1032      H1036   1.083       .  S
C1037      C1038   1.407   1_455  A
C1037      C1042   1.396       .  A
C1037      H1047   1.083   1_455  S
C1038      C1043   1.486       .  S
C1038      C1039   1.407   1_655  A
C1039      C1040   1.396       .  A
C1039      H1044   1.082   1_455  S
C1040      C1041   1.402       .  A
C1040      H1045   1.083       .  S
C1041      C1042   1.404       .  A
C1042      H1046   1.083       .  S
C1043      C1048   1.405       .  A
C1043      C1052   1.408       .  A
C1048      C1049   1.394       .  A
C1048      H1053   1.082       .  S
C1049      C1050   1.403       .  A
C1049      H1054   1.083       .  S
C1050      C1051   1.403       .  A
C1051      C1052   1.398       .  A
C1051      H1055   1.083       .  S
C1052      H1056   1.082       .  S
In1057     O1059   2.245       .  S
In1057     O1060   2.223       .  S
In1057     O1068   2.237       .  S
In1057     O1062   2.246       .  S
In1057     O1064   2.237       .  S
In1057     O1065   2.248       .  S
In1057     O1066   2.244       .  S
In1057     O1069   2.232       .  S
C1058      O1064   1.261       .  A
C1058      O1066   1.260       .  A
C1058      C1210   1.461       .  S
O1059      C1067   1.261       .  A
O1060      C1067   1.261       .  A
C1061      O1068   1.259       .  A
C1061      O1062   1.262       .  A
C1061      C2097   1.472       .  S
C1063      O1065   1.262       .  A
C1063      O1069   1.259       .  A
C1063      C2086   1.472       .  S
C1067      C1418   1.458       .  S
In1070     O1072   2.220       .  S
In1070     O1073   2.250       .  S
In1070     O1081   2.240       .  S
In1070     O1075   2.258       .  S
In1070     O1077   2.233       .  S
In1070     O1078   2.230       .  S
In1070     O1079   2.250       .  S
In1070     O1082   2.250       .  S
C1071      O1077   1.260       .  A
C1071      O1079   1.259       .  A
C1071      C1401   1.461       .  S
O1072      C1080   1.261       .  A
O1073      C1080   1.264       .  A
C1074      O1081   1.260       .  A
C1074      O1075   1.263       .  A
C1074      C2057   1.479       .  S
C1076      O1078   1.259       .  A
C1076      O1082   1.260       .  A
C1076      C1245   1.458       .  S
C1080      C2106   1.473       .  S
In1083     O1085   2.229       .  S
In1083     O1086   2.251       .  S
In1083     O1094   2.243       .  S
In1083     O1088   2.246       .  S
In1083     O1090   2.231       .  S
In1083     O1091   2.239       .  S
In1083     O1092   2.253       .  S
In1083     O1095   2.243       .  S
C1084      O1090   1.260       .  A
C1084      O1092   1.262       .  A
C1084      C1440   1.462       .  S
O1085      C1093   1.260       .  A
O1086      C1093   1.263       .  A
C1087      O1094   1.259       .  A
C1087      O1088   1.261       .  A
C1087      C2077   1.474       .  S
C1089      O1091   1.260       .  A
C1089      O1095   1.257       .  A
C1089      C1193   1.459       .  S
C1093      C2037   1.471       .  S
In1096     O1098   2.245       .  S
In1096     O1099   2.238       .  S
In1096     O1107   2.237       .  S
In1096     O1101   2.241       .  S
In1096     O1103   2.234       .  S
In1096     O1104   2.257       .  S
In1096     O1105   2.250       .  S
In1096     O1108   2.232       .  S
C1097      O1103   1.258       .  A
C1097      O1105   1.259       .  A
C1097      C1262   1.460       .  S
O1098      C1106   1.257       .  A
O1099      C1106   1.259       .  A
C1100      O1107   1.261       .  A
C1100      O1101   1.261       .  A
C1100      C2046   1.473       .  S
C1102      O1104   1.262       .  A
C1102      O1108   1.261       .  A
C1102      C2066   1.477       .  S
C1106      C1431   1.457       .  S
In1109     O1111   2.234       .  S
In1109     O1112   2.248       .  S
In1109     O1120   2.236       .  S
In1109     O1114   2.257       .  S
In1109     O1116   2.248       .  S
In1109     O1117   2.229       .  S
In1109     O1118   2.254       .  S
In1109     O1121   2.256       .  S
C1110      O1116   1.260       .  A
C1110      O1118   1.258       .  A
C1110      C1167   1.465       .  S
O1111      C1119   1.261       .  A
O1112      C1119   1.261       .  A
C1113      O1120   1.261       .  A
C1113      O1114   1.264       .  A
C1113      C2026   1.478       .  S
C1115      O1117   1.258       .  A
C1115      O1121   1.261       .  A
C1115      C1388   1.461       .  S
C1119      C2006   1.473       .  S
In1122     O1124   2.243       .  S
In1122     O1125   2.238       .  S
In1122     O1133   2.232       .  S
In1122     O1127   2.255       .  S
In1122     O1129   2.225       .  S
In1122     O1130   2.249       .  S
In1122     O1131   2.257       .  S
In1122     O1134   2.229       .  S
C1123      O1129   1.260       .  A
C1123      O1131   1.261       .  A
C1123      C1379   1.462       .  S
O1124      C1132   1.260       .  A
O1125      C1132   1.260       .  A
C1126      O1133   1.259       .  A
C1126      O1127   1.261       .  A
C1126      C1977   1.473       .  S
C1128      O1130   1.262       .  A
C1128      O1134   1.259       .  A
C1128      C2017   1.470       .  S
C1132      C1236   1.461       .  S
In1135     O1137   2.264       .  S
In1135     O1138   2.239       .  S
In1135     O1146   2.231       .  S
In1135     O1140   2.256       .  S
In1135     O1142   2.235       .  S
In1135     O1143   2.256       .  S
In1135     O1144   2.254       .  S
In1135     O1147   2.229       .  S
C1136      O1142   1.260       .  A
C1136      O1144   1.260       .  A
C1136      C1470   1.464       .  S
O1137      C1145   1.260       .  A
O1138      C1145   1.259       .  A
C1139      O1146   1.260       .  A
C1139      O1140   1.261       .  A
C1139      C1997   1.474       .  S
C1141      O1143   1.262       .  A
C1141      O1147   1.259       .  A
C1141      C1957   1.473       .  S
C1145      C1184   1.467       .  S
In1148     O1150   2.224       .  S
In1148     O1151   2.249       .  S
In1148     O1159   2.221       .  S
In1148     O1153   2.245       .  S
In1148     O1155   2.237       .  S
In1148     O1156   2.238       .  S
In1148     O1157   2.252       .  S
In1148     O1160   2.244       .  S
C1149      O1155   1.258       .  A
C1149      O1157   1.260       .  A
C1149      C1219   1.462       .  S
O1150      C1158   1.260       .  A
O1151      C1158   1.264       .  A
C1152      O1159   1.260       .  A
C1152      O1153   1.264       .  A
C1152      C1966   1.472       .  S
C1154      O1156   1.261       .  A
C1154      O1160   1.260       .  A
C1154      C1453   1.461       .  S
C1158      C1986   1.473       .  S
In1161     O1163   2.251       .  S
In1161     O1164   2.232       .  S
In1161     O1172   2.252       .  S
In1161     O1166   2.262       .  S
In1161     O1168   2.283       .  S
In1161     O1169   2.245       .  S
In1161     O1170   2.244       .  S
In1161     O1173   2.261       .  S
C1162      O1168   1.263       .  A
C1162      O1170   1.258       .  A
C1162      C1937   1.486       .  S
O1163      C1171   1.263       .  A
O1164      C1171   1.259       .  A
C1165      O1172   1.258       .  A
C1165      O1166   1.260       .  A
C1165      C1926   1.479       .  S
C1167      O1169   1.257       .  A
C1167      O1173   1.261       .  A
C1171      C1275   1.460       .  S
In1174     O1176   2.270       .  S
In1174     O1177   2.237       .  S
In1174     O1185   2.252       .  S
In1174     O1179   2.277       .  S
In1174     O1181   2.283       .  S
In1174     O1182   2.238       .  S
In1174     O1183   2.248       .  S
In1174     O1186   2.260       .  S
C1175      O1181   1.263       .  A
C1175      O1183   1.257       .  A
C1175      C1946   1.487       .  S
O1176      C1184   1.262       .  A
O1177      C1184   1.257       .  A
C1178      O1185   1.258       .  A
C1178      O1179   1.260       .  A
C1178      C1897   1.485       .  S
C1180      O1182   1.258       .  A
C1180      O1186   1.262       .  A
C1180      C1292   1.464       .  S
In1187     O1189   2.256       .  S
In1187     O1190   2.225       .  S
In1187     O1198   2.233       .  S
In1187     O1192   2.261       .  S
In1187     O1194   2.278       .  S
In1187     O1195   2.235       .  S
In1187     O1196   2.240       .  S
In1187     O1199   2.252       .  S
C1188      O1194   1.264       .  A
C1188      O1196   1.259       .  A
C1188      C1877   1.485       .  S
O1189      C1197   1.263       .  A
O1190      C1197   1.258       .  A
C1191      O1198   1.257       .  A
C1191      O1192   1.261       .  A
C1191      C1857   1.475       .  S
C1193      O1195   1.257       .  A
C1193      O1199   1.261       .  A
C1197      C1344   1.461       .  S
In1200     O1202   2.252       .  S
In1200     O1203   2.236       .  S
In1200     O1211   2.245       .  S
In1200     O1205   2.256       .  S
In1200     O1207   2.248       .  S
In1200     O1208   2.227       .  S
In1200     O1209   2.271       .  S
In1200     O1212   2.247       .  S
C1201      O1207   1.258       .  A
C1201      O1209   1.263       .  A
C1201      C1886   1.484       .  S
O1202      C1210   1.261       .  A
O1203      C1210   1.258       .  A
C1204      O1211   1.258       .  A
C1204      O1205   1.259       .  A
C1204      C1917   1.477       .  S
C1206      O1208   1.259       .  A
C1206      O1212   1.262       .  A
C1206      C1318   1.456       .  S
In1213     O1215   2.255       .  S
In1213     O1216   2.234       .  S
In1213     O1224   2.246       .  S
In1213     O1218   2.261       .  S
In1213     O1220   2.262       .  S
In1213     O1221   2.241       .  S
In1213     O1222   2.270       .  S
In1213     O1225   2.255       .  S
C1214      O1220   1.257       .  A
C1214      O1222   1.257       .  A
C1214      C1837   1.482       .  S
O1215      C1223   1.263       .  A
O1216      C1223   1.260       .  A
C1217      O1224   1.258       .  A
C1217      O1218   1.259       .  A
C1217      C1817   1.478       .  S
C1219      O1221   1.259       .  A
C1219      O1225   1.260       .  A
C1223      C1305   1.462       .  S
In1226     O1228   2.244       .  S
In1226     O1229   2.238       .  S
In1226     O1237   2.241       .  S
In1226     O1231   2.264       .  S
In1226     O1233   2.262       .  S
In1226     O1234   2.233       .  S
In1226     O1235   2.268       .  S
In1226     O1238   2.257       .  S
C1227      O1233   1.258       .  A
C1227      O1235   1.259       .  A
C1227      C1846   1.483       .  S
O1228      C1236   1.263       .  A
O1229      C1236   1.261       .  A
C1230      O1237   1.257       .  A
C1230      O1231   1.260       .  A
C1230      C1866   1.476       .  S
C1232      O1234   1.259       .  A
C1232      O1238   1.261       .  A
C1232      C1279   1.461       .  S
In1239     O1241   2.258       .  S
In1239     O1242   2.237       .  S
In1239     O1250   2.247       .  S
In1239     O1244   2.271       .  S
In1239     O1246   2.275       .  S
In1239     O1247   2.228       .  S
In1239     O1248   2.251       .  S
In1239     O1251   2.252       .  S
C1240      O1246   1.264       .  A
C1240      O1248   1.258       .  A
C1240      C1797   1.486       .  S
O1241      C1249   1.263       .  A
O1242      C1249   1.258       .  A
C1243      O1250   1.259       .  A
C1243      O1244   1.260       .  A
C1243      C1906   1.483       .  S
C1245      O1247   1.257       .  A
C1245      O1251   1.261       .  A
C1249      C1331   1.464       .  S
In1252     O1254   2.249       .  S
In1252     O1255   2.233       .  S
In1252     O1263   2.242       .  S
In1252     O1257   2.266       .  S
In1252     O1259   2.273       .  S
In1252     O1260   2.231       .  S
In1252     O1261   2.250       .  S
In1252     O1264   2.241       .  S
C1253      O1259   1.263       .  A
C1253      O1261   1.258       .  A
C1253      C1806   1.485       .  S
O1254      C1262   1.262       .  A
O1255      C1262   1.259       .  A
C1256      O1263   1.258       .  A
C1256      O1257   1.260       .  A
C1256      C1826   1.480       .  S
C1258      O1260   1.259       .  A
C1258      O1264   1.261       .  A
C1258      C1362   1.455       .  S
In1265     O1267   2.247       .  S
In1265     O1268   2.236       .  S
In1265     O1276   2.231       .  S
In1265     O1270   2.249       .  S
In1265     O1272   2.231       .  S
In1265     O1273   2.252       .  S
In1265     O1274   2.250       .  S
In1265     O1277   2.236       .  S
C1266      O1272   1.259       .  A
C1266      O1274   1.260       .  A
C1266      C1392   1.460       .  S
O1267      C1275   1.259       .  A
O1268      C1275   1.260       .  A
C1269      O1276   1.260       .  A
C1269      O1270   1.261       .  A
C1269      C1757   1.471       .  S
C1271      O1273   1.261       .  A
C1271      O1277   1.260       .  A
C1271      C1777   1.474       .  S
In1278     O1280   2.214       .  S
In1278     O1281   2.274       .  S
In1278     O1289   2.222       .  S
In1278     O1283   2.249       .  S
In1278     O1285   2.234       .  S
In1278     O1286   2.244       .  S
In1278     O1287   2.260       .  S
In1278     O1290   2.249       .  S
C1279      O1285   1.256       .  A
C1279      O1287   1.260       .  A
O1280      C1288   1.258       .  A
O1281      C1288   1.264       .  A
C1282      O1289   1.262       .  A
C1282      O1283   1.265       .  A
C1282      C1786   1.474       .  S
C1284      O1286   1.261       .  A
C1284      O1290   1.260       .  A
C1284      C1375   1.464       .  S
C1288      C1737   1.476       .  S
In1291     O1293   2.222       .  S
In1291     O1294   2.252       .  S
In1291     O1302   2.229       .  S
In1291     O1296   2.255       .  S
In1291     O1298   2.242       .  S
In1291     O1299   2.236       .  S
In1291     O1300   2.256       .  S
In1291     O1303   2.259       .  S
C1292      O1298   1.259       .  A
C1292      O1300   1.259       .  A
O1293      C1301   1.261       .  A
O1294      C1301   1.263       .  A
C1295      O1302   1.260       .  A
C1295      O1296   1.263       .  A
C1295      C1726   1.474       .  S
C1297      O1299   1.258       .  A
C1297      O1303   1.259       .  A
C1297      C1466   1.463       .  S
C1301      C1766   1.472       .  S
In1304     O1306   2.257       .  S
In1304     O1307   2.233       .  S
In1304     O1315   2.228       .  S
In1304     O1309   2.244       .  S
In1304     O1311   2.231       .  S
In1304     O1312   2.257       .  S
In1304     O1313   2.254       .  S
In1304     O1316   2.234       .  S
C1305      O1311   1.258       .  A
C1305      O1313   1.261       .  A
O1306      C1314   1.260       .  A
O1307      C1314   1.259       .  A
C1308      O1315   1.260       .  A
C1308      O1309   1.261       .  A
C1308      C1717   1.471       .  S
C1310      O1312   1.262       .  A
C1310      O1316   1.260       .  A
C1310      C1746   1.475       .  S
C1314      C1457   1.463       .  S
In1317     O1319   2.235       .  S
In1317     O1320   2.256       .  S
In1317     O1328   2.223       .  S
In1317     O1322   2.241       .  S
In1317     O1324   2.227       .  S
In1317     O1325   2.237       .  S
In1317     O1326   2.246       .  S
In1317     O1329   2.251       .  S
C1318      O1324   1.258       .  A
C1318      O1326   1.260       .  A
O1319      C1327   1.260       .  A
O1320      C1327   1.264       .  A
C1321      O1328   1.261       .  A
C1321      O1322   1.263       .  A
C1321      C1697   1.469       .  S
C1323      O1325   1.260       .  A
C1323      O1329   1.259       .  A
C1323      C1414   1.462       .  S
C1327      C1686   1.478       .  S
In1330     O1332   2.250       .  S
In1330     O1333   2.233       .  S
In1330     O1341   2.233       .  S
In1330     O1335   2.244       .  S
In1330     O1337   2.241       .  S
In1330     O1338   2.250       .  S
In1330     O1339   2.249       .  S
In1330     O1342   2.239       .  S
C1331      O1337   1.261       .  A
C1331      O1339   1.259       .  A
O1332      C1340   1.260       .  A
O1333      C1340   1.260       .  A
C1334      O1341   1.260       .  A
C1334      O1335   1.262       .  A
C1334      C1706   1.470       .  S
C1336      O1338   1.262       .  A
C1336      O1342   1.261       .  A
C1336      C1657   1.477       .  S
C1340      C1405   1.462       .  S
In1343     O1345   2.254       .  S
In1343     O1346   2.248       .  S
In1343     O1354   2.234       .  S
In1343     O1348   2.249       .  S
In1343     O1350   2.230       .  S
In1343     O1351   2.256       .  S
In1343     O1352   2.258       .  S
In1343     O1355   2.234       .  S
C1344      O1350   1.258       .  A
C1344      O1352   1.260       .  A
O1345      C1353   1.258       .  A
O1346      C1353   1.260       .  A
C1347      O1354   1.261       .  A
C1347      O1348   1.262       .  A
C1347      C1637   1.475       .  S
C1349      O1351   1.264       .  A
C1349      O1355   1.261       .  A
C1349      C1677   1.477       .  S
C1353      C1444   1.465       .  S
In1356     O1358   2.229       .  S
In1356     O1359   2.245       .  S
In1356     O1367   2.248       .  S
In1356     O1361   2.257       .  S
In1356     O1363   2.227       .  S
In1356     O1364   2.233       .  S
In1356     O1365   2.256       .  S
In1356     O1368   2.241       .  S
C1357      O1363   1.258       .  A
C1357      O1365   1.260       .  A
C1357      C1427   1.458       .  S
O1358      C1366   1.262       .  A
O1359      C1366   1.263       .  A
C1360      O1367   1.259       .  A
C1360      O1361   1.261       .  A
C1360      C1666   1.478       .  S
C1362      O1364   1.258       .  A
C1362      O1368   1.258       .  A
C1366      C1646   1.472       .  S
In1369     O1371   2.268       .  S
In1369     O1372   2.226       .  S
In1369     O1380   2.248       .  S
In1369     O1376   2.275       .  S
C1370      O1378   1.260   1_554  A
C1370      C1626   1.486       .  S
O1371      C1379   1.262       .  A
O1372      C1379   1.257       .  A
C1373      O1380   1.257       .  A
C1373      C1606   1.482       .  S
C1375      O1377   1.257       .  A
C1375      O1381   1.261       .  A
In1382     O1384   2.254   1_554  S
In1382     O1385   2.230   1_554  S
In1382     O1393   2.250   1_554  S
In1382     O1389   2.280   1_554  S
C1383      O1389   1.263   1_554  A
C1383      C1617   1.485       .  S
O1384      C1392   1.262       .  A
O1385      C1392   1.258       .  A
C1386      O1393   1.258       .  A
C1386      C1586   1.477       .  S
C1388      O1390   1.258       .  A
C1388      O1394   1.261       .  A
In1395     O1406   2.250       .  S
In1395     O1400   2.267       .  S
In1395     O1402   2.250       .  S
In1395     O1403   2.235       .  S
In1395     O1404   2.287       .  S
In1395     O1407   2.258       .  S
C1396      O1402   1.257       .  A
C1396      O1404   1.263       .  A
C1396      C1566   1.488       .  S
O1397      C1405   1.263       .  A
O1398      C1405   1.258       .  A
C1399      O1406   1.258       .  A
C1399      O1400   1.260       .  A
C1399      C1537   1.482       .  S
C1401      O1403   1.257       .  A
C1401      O1407   1.262       .  A
In1408     O1419   2.242   1_556  S
In1408     O1413   2.260       .  S
In1408     O1415   2.243       .  S
In1408     O1416   2.238       .  S
In1408     O1417   2.276   1_556  S
In1408     O1420   2.259       .  S
C1409      O1415   1.258   1_554  A
C1409      O1417   1.263       .  A
C1409      C1557   1.485       .  S
O1410      C1418   1.262       .  A
O1411      C1418   1.257       .  A
C1412      O1419   1.258   1_556  A
C1412      O1413   1.260       .  A
C1412      C1577   1.478   1_556  S
C1414      O1416   1.256       .  A
C1414      O1420   1.261       .  A
In1421     O1423   2.247       .  S
In1421     O1424   2.230       .  S
In1421     O1432   2.238       .  S
In1421     O1428   2.277       .  S
C1422      O1430   1.258   1_554  A
C1422      C1517   1.483       .  S
O1423      C1431   1.261       .  A
O1424      C1431   1.257       .  A
C1425      O1432   1.257       .  A
C1425      C1497   1.475       .  S
C1427      O1429   1.258       .  A
C1427      O1433   1.263       .  A
In1434     O1445   2.255       .  S
In1434     O1439   2.274       .  S
In1434     O1441   2.281       .  S
In1434     O1442   2.235       .  S
In1434     O1443   2.248       .  S
In1434     O1446   2.261       .  S
C1435      O1441   1.263       .  A
C1435      O1443   1.258       .  A
C1435      C1526   1.486       .  S
O1436      C1444   1.263       .  A
O1437      C1444   1.257       .  A
C1438      O1445   1.258       .  A
C1438      O1439   1.260       .  A
C1438      C1597   1.485       .  S
C1440      O1442   1.257       .  A
C1440      O1446   1.261       .  A
In1447     O1458   2.242       .  S
In1447     O1452   2.262       .  S
In1447     O1454   2.274       .  S
In1447     O1455   2.239       .  S
In1447     O1456   2.238       .  S
In1447     O1459   2.254       .  S
C1448      O1454   1.263       .  A
C1448      O1456   1.258       .  A
C1448      C1477   1.482       .  S
O1449      C1457   1.263       .  A
O1450      C1457   1.258       .  A
C1451      O1458   1.258       .  A
C1451      O1452   1.260       .  A
C1451      C1506   1.477       .  S
C1453      O1455   1.257       .  A
C1453      O1459   1.261       .  A
In1460     O1462   2.268       .  S
In1460     O1463   2.240       .  S
In1460     O1471   2.251       .  S
In1460     O1465   2.274       .  S
In1460     O1467   2.275       .  S
In1460     O1469   2.248       .  S
C1461      O1467   1.262       .  A
C1461      O1469   1.257       .  A
C1461      C1486   1.483       .  S
O1462      C1470   1.260       .  A
O1463      C1470   1.256       .  A
C1464      O1471   1.258       .  A
C1464      O1465   1.260       .  A
C1464      C1546   1.484       .  S
C1466      O1468   1.259       .  A
C1466      O1472   1.264       .  A
C1473      C1474   1.406   1_565  A
C1473      C1478   1.396       .  A
C1473      H1483   1.083   1_565  S
C1474      C1479   1.490       .  S
C1475      C1476   1.404       .  A
C1475      H1480   1.083   1_564  S
C1476      H1481   1.083       .  S
C1477      C1478   1.405       .  A
C1478      H1482   1.083       .  S
C1479      C1484   1.406       .  A
C1484      C1485   1.397       .  A
C1484      H1489   1.083       .  S
C1485      C1486   1.405       .  A
C1485      H1490   1.083       .  S
C1487      C1488   1.403       .  A
C1487      H1491   1.083       .  S
C1488      H1492   1.083       .  S
C1493      C1494   1.404       .  A
C1493      C1498   1.395       .  A
C1493      H1503   1.083       .  S
C1494      C1499   1.481       .  S
C1495      C1496   1.400       .  A
C1495      H1500   1.083       .  S
C1496      H1501   1.083       .  S
C1497      C1498   1.404       .  A
C1498      H1502   1.083       .  S
C1499      C1508   1.405       .  A
C1504      C1505   1.395       .  A
C1504      H1509   1.083       .  S
C1505      H1510   1.083       .  S
C1506      C1507   1.405       .  A
C1507      C1508   1.400       .  A
C1507      H1511   1.083       .  S
C1508      H1512   1.083       .  S
C1513      C1518   1.397       .  A
C1513      H1523   1.083       .  S
C1514      C1519   1.490       .  S
C1514      C1515   1.408       .  A
C1515      C1516   1.405       .  A
C1515      H1520   1.083       .  S
C1516      H1521   1.083       .  S
C1517      C1518   1.405   1_554  A
C1518      H1522   1.083       .  S
C1519      C1528   1.407   1_655  A
C1524      C1525   1.398       .  A
C1524      H1529   1.083   1_455  S
C1525      H1530   1.083       .  S
C1526      C1527   1.406       .  A
C1527      C1528   1.405       .  A
C1527      H1531   1.083       .  S
C1528      H1532   1.083   1_455  S
C1533      C1534   1.407       .  A
C1533      C1538   1.402       .  A
C1533      H1543   1.083       .  S
C1534      C1539   1.492       .  S
C1535      C1536   1.399       .  A
C1535      H1540   1.083       .  S
C1536      H1541   1.083       .  S
C1537      C1538   1.405       .  A
C1538      H1542   1.083       .  S
C1539      C1544   1.408       .  A
C1544      C1545   1.404       .  A
C1544      H1549   1.083       .  S
C1545      C1546   1.406       .  A
C1545      H1550   1.083       .  S
C1547      C1548   1.398       .  A
C1547      H1551   1.083       .  S
C1548      H1552   1.083       .  S
C1553      C1558   1.398       .  A
C1553      H1563   1.083   1_455  S
C1554      C1555   1.409   1_655  A
C1555      C1556   1.405       .  A
C1555      H1560   1.082   1_455  S
C1556      C1557   1.406       .  A
C1556      H1561   1.083       .  S
C1558      H1562   1.083       .  S
C1559      C1568   1.409       .  A
C1564      C1565   1.399       .  A
C1564      H1569   1.083       .  S
C1565      H1570   1.083       .  S
C1566      C1567   1.406       .  A
C1567      C1568   1.406       .  A
C1567      H1571   1.083       .  S
C1568      H1572   1.083       .  S
C1573      C1578   1.396       .  A
C1573      H1583   1.083       .  S
C1574      C1579   1.484       .  S
C1574      C1575   1.406       .  A
C1575      C1576   1.400       .  A
C1575      H1580   1.083       .  S
C1576      C1577   1.405   1_556  A
C1576      H1581   1.083       .  S
C1578      H1582   1.083       .  S
C1579      C1588   1.405   1_556  A
C1584      C1585   1.397       .  A
C1584      H1589   1.083       .  S
C1585      H1590   1.083       .  S
C1586      C1587   1.404   1_556  A
C1587      C1588   1.399       .  A
C1587      H1591   1.083       .  S
C1588      H1592   1.083       .  S
C1593      C1594   1.407       .  A
C1593      C1598   1.403       .  A
C1593      H1603   1.083       .  S
C1594      C1599   1.491       .  S
C1595      C1596   1.399       .  A
C1595      H1600   1.083       .  S
C1596      H1601   1.083       .  S
C1597      C1598   1.406       .  A
C1598      H1602   1.083       .  S
C1599      C1604   1.407       .  A
C1604      C1605   1.403       .  A
C1604      H1609   1.083       .  S
C1605      C1606   1.405       .  A
C1605      H1610   1.083       .  S
C1607      C1608   1.398       .  A
C1607      H1611   1.083       .  S
C1608      H1612   1.083       .  S
C1613      C1618   1.398       .  A
C1613      H1623   1.083       .  S
C1614      C1619   1.495       .  S
C1614      C1615   1.409   1_554  A
C1615      C1616   1.405       .  A
C1615      H1620   1.083       .  S
C1616      C1617   1.406   1_556  A
C1616      H1621   1.083       .  S
C1618      H1622   1.083       .  S
C1619      C1628   1.408   1_545  A
C1624      C1625   1.399       .  A
C1624      H1629   1.083   1_565  S
C1625      H1630   1.083       .  S
C1626      C1627   1.406       .  A
C1627      C1628   1.405       .  A
C1627      H1631   1.083       .  S
C1628      H1632   1.083   1_565  S
C1633      C1634   1.405   1_455  A
C1633      C1638   1.394       .  A
C1633      H1643   1.083   1_455  S
C1634      C1639   1.483       .  S
C1634      C1635   1.406   1_655  A
C1635      C1636   1.400       .  A
C1635      H1640   1.083   1_455  S
C1636      C1637   1.405       .  A
C1636      H1641   1.083       .  S
C1637      C1638   1.403       .  A
C1638      H1642   1.083       .  S
C1639      C1644   1.406       .  A
C1639      C1648   1.406       .  A
C1644      C1645   1.399       .  A
C1644      H1649   1.083       .  S
C1645      C1646   1.404       .  A
C1645      H1650   1.083       .  S
C1646      C1647   1.402       .  A
C1647      C1648   1.394       .  A
C1647      H1651   1.083       .  S
C1648      H1652   1.083       .  S
C1653      C1654   1.407       .  A
C1653      C1658   1.400       .  A
C1653      H1663   1.083       .  S
C1654      C1659   1.488       .  S
C1654      C1655   1.406       .  A
C1655      C1656   1.396       .  A
C1655      H1660   1.083       .  S
C1656      C1657   1.404       .  A
C1656      H1661   1.083       .  S
C1657      C1658   1.404       .  A
C1658      H1662   1.083       .  S
C1659      C1664   1.407       .  A
C1659      C1668   1.407       .  A
C1664      C1665   1.400       .  A
C1664      H1669   1.083       .  S
C1665      C1666   1.404       .  A
C1665      H1670   1.083       .  S
C1666      C1667   1.404       .  A
C1667      C1668   1.397       .  A
C1667      H1671   1.083       .  S
C1668      H1672   1.083       .  S
C1673      C1674   1.407       .  A
C1673      C1678   1.396       .  A
C1673      H1683   1.083       .  S
C1674      C1679   1.489       .  S
C1674      C1675   1.408       .  A
C1675      C1676   1.401       .  A
C1675      H1680   1.082       .  S
C1676      C1677   1.404       .  A
C1676      H1681   1.083       .  S
C1677      C1678   1.403       .  A
C1678      H1682   1.083       .  S
C1679      C1684   1.407       .  A
C1679      C1688   1.408       .  A
C1684      C1685   1.396       .  A
C1684      H1689   1.082       .  S
C1685      C1686   1.404       .  A
C1685      H1690   1.083       .  S
C1686      C1687   1.404       .  A
C1687      C1688   1.401       .  A
C1687      H1691   1.083       .  S
C1688      H1692   1.083       .  S
C1693      C1694   1.404   1_455  A
C1693      C1698   1.393       .  A
C1693      H1703   1.083   1_455  S
C1694      C1699   1.476       .  S
C1694      C1695   1.405   1_655  A
C1695      C1696   1.397       .  A
C1695      H1700   1.083   1_455  S
C1696      C1697   1.403       .  A
C1696      H1701   1.083       .  S
C1697      C1698   1.403       .  A
C1698      H1702   1.083       .  S
C1699      C1704   1.404       .  A
C1699      C1708   1.404       .  A
C1704      C1705   1.394       .  A
C1704      H1709   1.083       .  S
C1705      C1706   1.404       .  A
C1705      H1710   1.083       .  S
C1706      C1707   1.403       .  A
C1707      C1708   1.396       .  A
C1707      H1711   1.083       .  S
C1708      H1712   1.083       .  S
C1713      C1714   1.408   1_565  A
C1713      C1718   1.399       .  A
C1713      H1723   1.082   1_565  S
C1714      C1719   1.487       .  S
C1714      C1715   1.407   1_545  A
C1715      C1716   1.393       .  A
C1715      H1720   1.082   1_565  S
C1716      C1717   1.401       .  A
C1716      H1721   1.083       .  S
C1717      C1718   1.403       .  A
C1718      H1722   1.083       .  S
C1719      C1724   1.408       .  A
C1719      C1728   1.406       .  A
C1724      C1725   1.400       .  A
C1724      H1729   1.082       .  S
C1725      C1726   1.403       .  A
C1725      H1730   1.083       .  S
C1726      C1727   1.402       .  A
C1727      C1728   1.393       .  A
C1727      H1731   1.083       .  S
C1728      H1732   1.082       .  S
C1733      C1734   1.403       .  A
C1733      C1738   1.391       .  A
C1733      H1743   1.083       .  S
C1734      C1739   1.483       .  S
C1734      C1735   1.408       .  A
C1735      C1736   1.404       .  A
C1735      H1740   1.083       .  S
C1736      C1737   1.405       .  A
C1736      H1741   1.083       .  S
C1737      C1738   1.403       .  A
C1738      H1742   1.083       .  S
C1739      C1744   1.405       .  A
C1739      C1748   1.406       .  A
C1744      C1745   1.394       .  A
C1744      H1749   1.083       .  S
C1745      C1746   1.403       .  A
C1745      H1750   1.083       .  S
C1746      C1747   1.405       .  A
C1747      C1748   1.401       .  A
C1747      H1751   1.083       .  S
C1748      H1752   1.083       .  S
C1753      C1754   1.406       .  A
C1753      C1758   1.399       .  A
C1753      H1763   1.083       .  S
C1754      C1759   1.482       .  S
C1754      C1755   1.406       .  A
C1755      C1756   1.393       .  A
C1755      H1760   1.083       .  S
C1756      C1757   1.402       .  A
C1756      H1761   1.083       .  S
C1757      C1758   1.403       .  A
C1758      H1762   1.083       .  S
C1759      C1764   1.407       .  A
C1759      C1768   1.405       .  A
C1764      C1765   1.400       .  A
C1764      H1769   1.083       .  S
C1765      C1766   1.404       .  A
C1765      H1770   1.083       .  S
C1766      C1767   1.402       .  A
C1767      C1768   1.391       .  A
C1767      H1771   1.083       .  S
C1768      H1772   1.083       .  S
C1773      C1774   1.406       .  A
C1773      C1778   1.395       .  A
C1773      H1783   1.083       .  S
C1774      C1779   1.485       .  S
C1774      C1775   1.407       .  A
C1775      C1776   1.399       .  A
C1775      H1780   1.083       .  S
C1776      C1777   1.404       .  A
C1776      H1781   1.083       .  S
C1777      C1778   1.403       .  A
C1778      H1782   1.083       .  S
C1779      C1784   1.405   1_545  A
C1779      C1788   1.407   1_545  A
C1784      C1785   1.394       .  A
C1784      H1789   1.083   1_565  S
C1785      C1786   1.403       .  A
C1785      H1790   1.083       .  S
C1786      C1787   1.404       .  A
C1787      C1788   1.400       .  A
C1787      H1791   1.083       .  S
C1788      H1792   1.083   1_565  S
C1793      C1794   1.407       .  A
C1793      C1798   1.400       .  A
C1793      H1803   1.083       .  S
C1794      C1799   1.495       .  S
C1794      C1795   1.408       .  A
C1795      C1796   1.403       .  A
C1795      H1800   1.083       .  S
C1796      C1797   1.405       .  A
C1796      H1801   1.083       .  S
C1797      C1798   1.406       .  A
C1798      H1802   1.083       .  S
C1799      C1804   1.407       .  A
C1799      C1808   1.408       .  A
C1804      C1805   1.400       .  A
C1804      H1809   1.083       .  S
C1805      C1806   1.406       .  A
C1805      H1810   1.083       .  S
C1806      C1807   1.405       .  A
C1807      C1808   1.403       .  A
C1807      H1811   1.083       .  S
C1808      H1812   1.083       .  S
C1813      C1814   1.409       .  A
C1813      C1818   1.396       .  A
C1813      H1823   1.082       .  S
C1814      C1819   1.496       .  S
C1814      C1815   1.410       .  A
C1815      C1816   1.402       .  A
C1815      H1820   1.082       .  S
C1816      C1817   1.405       .  A
C1816      H1821   1.083       .  S
C1817      C1818   1.402       .  A
C1818      H1822   1.083       .  S
C1819      C1824   1.408       .  A
C1819      C1828   1.410       .  A
C1824      C1825   1.395       .  A
C1824      H1829   1.082       .  S
C1825      C1826   1.402       .  A
C1825      H1830   1.083       .  S
C1826      C1827   1.405       .  A
C1827      C1828   1.403       .  A
C1827      H1831   1.083       .  S
C1828      H1832   1.082       .  S
C1833      C1834   1.409       .  A
C1833      C1838   1.401       .  A
C1833      H1843   1.083       .  S
C1834      C1839   1.495       .  S
C1834      C1835   1.408       .  A
C1835      C1836   1.400       .  A
C1835      H1840   1.083       .  S
C1836      C1837   1.404       .  A
C1836      H1841   1.083       .  S
C1837      C1838   1.405       .  A
C1838      H1842   1.083       .  S
C1839      C1844   1.408       .  A
C1839      C1848   1.408       .  A
C1844      C1845   1.402       .  A
C1844      H1849   1.082       .  S
C1845      C1846   1.405       .  A
C1845      H1850   1.083       .  S
C1846      C1847   1.405       .  A
C1847      C1848   1.400       .  A
C1847      H1851   1.083       .  S
C1848      H1852   1.083       .  S
C1853      C1854   1.407       .  A
C1853      C1858   1.400       .  A
C1853      H1863   1.083       .  S
C1854      C1859   1.487       .  S
C1854      C1855   1.406       .  A
C1855      C1856   1.394       .  A
C1855      H1860   1.082       .  S
C1856      C1857   1.403       .  A
C1856      H1861   1.083       .  S
C1857      C1858   1.404       .  A
C1858      H1862   1.083       .  S
C1859      C1864   1.407       .  A
C1859      C1868   1.406       .  A
C1864      C1865   1.400       .  A
C1864      H1869   1.083       .  S
C1865      C1866   1.404       .  A
C1865      H1870   1.083       .  S
C1866      C1867   1.403       .  A
C1867      C1868   1.395       .  A
C1867      H1871   1.083       .  S
C1868      H1872   1.083       .  S
C1873      C1874   1.408       .  A
C1873      C1878   1.405       .  A
C1873      H1883   1.083       .  S
C1874      C1879   1.492       .  S
C1874      C1875   1.406       .  A
C1875      C1876   1.398       .  A
C1875      H1880   1.083       .  S
C1876      C1877   1.406       .  A
C1876      H1881   1.083       .  S
C1877      C1878   1.406       .  A
C1878      H1882   1.083       .  S
C1879      C1884   1.408       .  A
C1879      C1888   1.407       .  A
C1884      C1885   1.403       .  A
C1884      H1889   1.083       .  S
C1885      C1886   1.405       .  A
C1885      H1890   1.083       .  S
C1886      C1887   1.406       .  A
C1887      C1888   1.399       .  A
C1887      H1891   1.083       .  S
C1888      H1892   1.083       .  S
C1893      C1894   1.406       .  A
C1893      C1898   1.397       .  A
C1893      H1903   1.083       .  S
C1894      C1899   1.490       .  S
C1894      C1895   1.408       .  A
C1895      C1896   1.405       .  A
C1895      H1900   1.083       .  S
C1896      C1897   1.407       .  A
C1896      H1901   1.083       .  S
C1897      C1898   1.404       .  A
C1898      H1902   1.083       .  S
C1899      C1904   1.406       .  A
C1899      C1908   1.408       .  A
C1904      C1905   1.397       .  A
C1904      H1909   1.083       .  S
C1905      C1906   1.404       .  A
C1905      H1910   1.083       .  S
C1906      C1907   1.407       .  A
C1907      C1908   1.404       .  A
C1907      H1911   1.083       .  S
C1908      H1912   1.083       .  S
C1913      C1914   1.406       .  A
C1913      C1918   1.396       .  A
C1913      H1923   1.083       .  S
C1914      C1919   1.486       .  S
C1914      C1915   1.406       .  A
C1915      C1916   1.400       .  A
C1915      H1920   1.083       .  S
C1916      C1917   1.405       .  A
C1916      H1921   1.083       .  S
C1917      C1918   1.404       .  A
C1918      H1922   1.083       .  S
C1919      C1924   1.406       .  A
C1919      C1928   1.406       .  A
C1924      C1925   1.397       .  A
C1924      H1929   1.083       .  S
C1925      C1926   1.404       .  A
C1925      H1930   1.083       .  S
C1926      C1927   1.405       .  A
C1927      C1928   1.400       .  A
C1927      H1931   1.083       .  S
C1928      H1932   1.083       .  S
C1933      C1934   1.408       .  A
C1933      C1938   1.406       .  A
C1933      H1943   1.083       .  S
C1934      C1939   1.492       .  S
C1934      C1935   1.405       .  A
C1935      C1936   1.398       .  A
C1935      H1940   1.083       .  S
C1936      C1937   1.406       .  A
C1936      H1941   1.083       .  S
C1937      C1938   1.407       .  A
C1938      H1942   1.083       .  S
C1939      C1944   1.408       .  A
C1939      C1948   1.406       .  A
C1944      C1945   1.405       .  A
C1944      H1949   1.083       .  S
C1945      C1946   1.406       .  A
C1945      H1950   1.083       .  S
C1946      C1947   1.407       .  A
C1947      C1948   1.399       .  A
C1947      H1951   1.083       .  S
C1948      H1952   1.083       .  S
C1953      C1954   1.408       .  A
C1953      C1958   1.399       .  A
C1953      H1963   1.082       .  S
C1954      C1959   1.485       .  S
C1954      C1955   1.405       .  A
C1955      C1956   1.394       .  A
C1955      H1960   1.083       .  S
C1956      C1957   1.403       .  A
C1956      H1961   1.083       .  S
C1957      C1958   1.403       .  A
C1958      H1962   1.083       .  S
C1959      C1964   1.407   1_545  A
C1959      C1968   1.406   1_545  A
C1964      C1965   1.398       .  A
C1964      H1969   1.083   1_565  S
C1965      C1966   1.403       .  A
C1965      H1970   1.083       .  S
C1966      C1967   1.403       .  A
C1967      C1968   1.393       .  A
C1967      H1971   1.083       .  S
C1968      H1972   1.082   1_565  S
C1973      C1974   1.407       .  A
C1973      C1978   1.399       .  A
C1973      H1983   1.083       .  S
C1974      C1979   1.484       .  S
C1974      C1975   1.405       .  A
C1975      C1976   1.394       .  A
C1975      H1980   1.083       .  S
C1976      C1977   1.403       .  A
C1976      H1981   1.083       .  S
C1977      C1978   1.403       .  A
C1978      H1982   1.083       .  S
C1979      C1984   1.406       .  A
C1979      C1988   1.406       .  A
C1984      C1985   1.398       .  A
C1984      H1989   1.083       .  S
C1985      C1986   1.403       .  A
C1985      H1990   1.083       .  S
C1986      C1987   1.403       .  A
C1987      C1988   1.394       .  A
C1987      H1991   1.083       .  S
C1988      H1992   1.083       .  S
C1993      C1994   1.405       .  A
C1993      C1998   1.392       .  A
C1993      H2003   1.083       .  S
C1994      C1999   1.485       .  S
C1994      C1995   1.408       .  A
C1995      C1996   1.401       .  A
C1995      H2000   1.083       .  S
C1996      C1997   1.405       .  A
C1996      H2001   1.083       .  S
C1997      C1998   1.402       .  A
C1998      H2002   1.083       .  S
C1999      C2004   1.406       .  A
C1999      C2008   1.407       .  A
C2004      C2005   1.393       .  A
C2004      H2009   1.083       .  S
C2005      C2006   1.401       .  A
C2005      H2010   1.083       .  S
C2006      C2007   1.405       .  A
C2007      C2008   1.400       .  A
C2007      H2011   1.083       .  S
C2008      H2012   1.083       .  S
C2013      C2014   1.407   1_565  A
C2013      C2018   1.395       .  A
C2013      H2023   1.083   1_565  S
C2014      C2019   1.488       .  S
C2014      C2015   1.409   1_545  A
C2015      C2016   1.399       .  A
C2015      H2020   1.082   1_565  S
C2016      C2017   1.402       .  A
C2016      H2021   1.083       .  S
C2017      C2018   1.402       .  A
C2018      H2022   1.083       .  S
C2019      C2024   1.407       .  A
C2019      C2028   1.408       .  A
C2024      C2025   1.395       .  A
C2024      H2029   1.082       .  S
C2025      C2026   1.404       .  A
C2025      H2030   1.083       .  S
C2026      C2027   1.404       .  A
C2027      C2028   1.400       .  A
C2027      H2031   1.083       .  S
C2028      H2032   1.082       .  S
C2033      C2034   1.406   1_455  A
C2033      C2038   1.398       .  A
C2033      H2043   1.083   1_455  S
C2034      C2039   1.482       .  S
C2034      C2035   1.405   1_655  A
C2035      C2036   1.395       .  A
C2035      H2040   1.083   1_455  S
C2036      C2037   1.403       .  A
C2036      H2041   1.083       .  S
C2037      C2038   1.403       .  A
C2038      H2042   1.083       .  S
C2039      C2044   1.405       .  A
C2039      C2048   1.405       .  A
C2044      C2045   1.394       .  A
C2044      H2049   1.083       .  S
C2045      C2046   1.403       .  A
C2045      H2050   1.083       .  S
C2046      C2047   1.405       .  A
C2047      C2048   1.398       .  A
C2047      H2051   1.083       .  S
C2048      H2052   1.083       .  S
C2053      C2054   1.406       .  A
C2053      C2058   1.401       .  A
C2053      H2063   1.083       .  S
C2054      C2059   1.486       .  S
C2054      C2055   1.406       .  A
C2055      C2056   1.396       .  A
C2055      H2060   1.083       .  S
C2056      C2057   1.404       .  A
C2056      H2061   1.083       .  S
C2057      C2058   1.405       .  A
C2058      H2062   1.083       .  S
C2059      C2064   1.407       .  A
C2059      C2068   1.405       .  A
C2064      C2065   1.402       .  A
C2064      H2069   1.083       .  S
C2065      C2066   1.405       .  A
C2065      H2070   1.083       .  S
C2066      C2067   1.403       .  A
C2067      C2068   1.395       .  A
C2067      H2071   1.083       .  S
C2068      H2072   1.083       .  S
C2073      C2074   1.406       .  A
C2073      C2078   1.396       .  A
C2073      H2083   1.083       .  S
C2074      C2079   1.484       .  S
C2074      C2075   1.406       .  A
C2075      C2076   1.397       .  A
C2075      H2080   1.083       .  S
C2076      C2077   1.403       .  A
C2076      H2081   1.083       .  S
C2077      C2078   1.404       .  A
C2078      H2082   1.083       .  S
C2079      C2084   1.405       .  A
C2079      C2088   1.407       .  A
C2084      C2085   1.395       .  A
C2084      H2089   1.083       .  S
C2085      C2086   1.403       .  A
C2085      H2090   1.083       .  S
C2086      C2087   1.402       .  A
C2087      C2088   1.397       .  A
C2087      H2091   1.083       .  S
C2088      H2092   1.083       .  S
C2093      C2094   1.407   1_455  A
C2093      C2098   1.396       .  A
C2093      H2103   1.083   1_455  S
C2094      C2099   1.486       .  S
C2094      C2095   1.407   1_655  A
C2095      C2096   1.396       .  A
C2095      H2100   1.082   1_455  S
C2096      C2097   1.402       .  A
C2096      H2101   1.083       .  S
C2097      C2098   1.404       .  A
C2098      H2102   1.083       .  S
C2099      C2104   1.405       .  A
C2099      C2108   1.408       .  A
C2104      C2105   1.394       .  A
C2104      H2109   1.082       .  S
C2105      C2106   1.403       .  A
C2105      H2110   1.083       .  S
C2106      C2107   1.403       .  A
C2107      C2108   1.398       .  A
C2107      H2111   1.083       .  S
C2108      H2112   1.082       .  S
