geometry optimzed in LAMMPS
_audit_creation_date              2020-11-30 
_audit_creation_method            'lammps2cif' 
_symmetry_space_group_name_H-M    'P1' 
_symmetry_Int_Tables_number       1 
_symmetry_cell_setting            triclinic 
loop_ 
_symmetry_equiv_pos_as_xyz 
  x,y,z 
_cell_length_a                    46.30149594 
_cell_length_b                    45.18995435124936 
_cell_length_c                    43.03491818529605 
_cell_angle_alpha                 90.08021372900716 
_cell_angle_beta                  90.54886265161271 
_cell_angle_gamma                 89.4582010163767 
loop_ 
_atom_site_label 
_atom_site_type_symbol 
_atom_site_fract_x 
_atom_site_fract_y 
_atom_site_fract_z 
_atom_site_charge 
O1          O  0.03491148  0.97062549  0.22059325    -0.74500
O2          O  0.97879766  0.03279967  0.20849037    -0.74600
O3          O  0.03763417  0.03046951  0.21399956    -0.74600
O4          O  0.97676726  0.97297237  0.21524262    -0.74700
O5          O  0.97273081  0.97919349  0.26641620    -0.74600
O6          O  0.03496868  0.03462288  0.26553240    -0.74600
O7          O  0.97714495  0.03901627  0.25946709    -0.74600
O8          O  0.03097245  0.97539335  0.27192654    -0.74600
Ni9        Ni  0.00715725  0.00159050  0.21269967     1.25400
Ni10       Ni  0.00375049  0.00727851  0.26759653     1.25400
C11         C  0.04196098  0.96257576  0.24822038     0.87600
C12         C  0.96861933  0.04641730  0.23217449     0.87600
C13         C  0.04664125  0.04156611  0.23976474     0.87600
C14         C  0.96499041  0.96635391  0.24113813     0.87800
O15         O  0.22104589  0.29510591  0.24895916    -0.81000
O16         O  0.25926481  0.19146464  0.16529435    -0.65700
O17         O  0.24817550  0.24213379  0.23347995    -1.12300
C18         C  0.32356732  0.29794336  0.19662997     1.05900
O19         O  0.30285551  0.20444106  0.14842198    -0.78900
O20         O  0.31916692  0.21591099  0.20907305    -0.66500
Ni21       Ni  0.20991608  0.25456711  0.24380707     1.34900
C22         C  0.31933335  0.22805048  0.23571733     0.84600
O23         O  0.22999480  0.18678329  0.21742775    -0.79400
O24         O  0.19596279  0.21484336  0.24033857    -0.89700
C25         C  0.28006292  0.18922911  0.14670837     0.84200
O26         O  0.19597414  0.26339269  0.20294573    -0.67900
O27         O  0.33342894  0.27230409  0.19046410    -0.87200
C28         C  0.20046469  0.24920286  0.17803449     0.85000
C29         C  0.20591590  0.18989383  0.23127014     1.06600
H30         H  0.26687648  0.25820882  0.16555092     0.38400
O31         O  0.27644667  0.24845833  0.18277063    -1.09900
O32         O  0.30529522  0.25210217  0.24086794    -0.66500
Ni33       Ni  0.27318679  0.27192342  0.21936170     1.26300
O34         O  0.22079733  0.23047353  0.17505841    -0.66700
O35         O  0.29751885  0.30215233  0.20411243    -0.79000
C36         C  0.24331084  0.30293478  0.26416035     0.84400
O37         O  0.26811902  0.29382725  0.25641664    -0.66200
Ni38       Ni  0.31529539  0.23818653  0.17164666     1.27400
Ni39       Ni  0.25332670  0.21678406  0.19935333     1.26100
H40         H  0.25630725  0.23247084  0.25164076     0.38900
O41         O  0.70529910  0.21610979  0.23753534    -0.81000
O42         O  0.80069197  0.25389397  0.14805022    -0.65700
O43         O  0.75726202  0.24334224  0.22151371    -1.12300
C44         C  0.70372907  0.32574917  0.18741198     1.05900
O45         O  0.80211611  0.30294435  0.15104835    -0.78900
O46         O  0.77985557  0.32333789  0.20603800    -0.66500
Ni47       Ni  0.74543279  0.20469010  0.23394404     1.34900
C48         C  0.76735508  0.31994355  0.23195663     0.84600
O49         O  0.80712585  0.21801428  0.19663183    -0.79400
O50         O  0.78449001  0.19005696  0.23203316    -0.89700
C51         C  0.81113511  0.27844231  0.13988092     0.84200
O52         O  0.73798843  0.18773550  0.19393500    -0.67900
O53         O  0.72777838  0.33408516  0.17632898    -0.87200
C54         C  0.74491478  0.19492306  0.16650081     0.85000
C55         C  0.80628407  0.19623742  0.21540543     1.06600
H56         H  0.73953411  0.27045634  0.15630784     0.38400
O57         O  0.75071581  0.27696724  0.17408373    -1.09900
O58         O  0.74683153  0.30174093  0.23547486    -0.66500
Ni59       Ni  0.72807427  0.27169635  0.21061844     1.26300
O60         O  0.75843710  0.21857876  0.16047795    -0.66700
O61         O  0.69956875  0.30012784  0.19852526    -0.79000
C62         C  0.69628230  0.23855304  0.25258266     0.84400
O63         O  0.70607468  0.26403993  0.24697545    -0.66200
Ni64       Ni  0.76437105  0.31600149  0.16530798     1.27400
Ni65       Ni  0.77914285  0.24756965  0.18475010     1.26100
H66         H  0.76877238  0.25109524  0.23844469     0.38900
O67         O  0.79783862  0.71710655  0.17212018    -0.81000
O68         O  0.69599685  0.76024497  0.25141846    -0.65700
O69         O  0.74502163  0.74549086  0.18325921    -1.12300
C70         C  0.80085654  0.82284161  0.22754001     1.05900
O71         O  0.69836774  0.80896202  0.24615414    -0.78900
O72         O  0.73132744  0.83346405  0.20258431    -0.66500
Ni73       Ni  0.75773901  0.70633781  0.17340808     1.34900
C74         C  0.74030187  0.82631924  0.17584806     0.84600
O75         O  0.69193591  0.72380438  0.20190065    -0.79400
O76         O  0.71862475  0.69285744  0.17239093    -0.89700
C77         C  0.68741103  0.78611857  0.25821498     0.84200
O78         O  0.76293897  0.69075627  0.21472657    -0.67900
O79         O  0.77817637  0.83107797  0.24185310    -0.87200
C80         C  0.75213794  0.69810202  0.24071889     0.85000
C81         C  0.69477177  0.70096376  0.18447566     1.06600
H82         H  0.75943515  0.77011761  0.24889422     0.38400
O83         O  0.74941982  0.77857632  0.23117744    -1.09900
O84         O  0.75581988  0.80344723  0.17088027    -0.66500
Ni85       Ni  0.77357562  0.77303437  0.19617900     1.26300
O86         O  0.73665052  0.72126854  0.24396438    -0.66700
O87         O  0.80208907  0.80037109  0.20983295    -0.79000
C88         C  0.80747456  0.73940752  0.15768245     0.84400
O89         O  0.79675525  0.76492964  0.16134801    -0.66200
Ni90       Ni  0.73869298  0.81801122  0.24306100     1.27400
Ni91       Ni  0.72021143  0.75152385  0.21733227     1.26100
H92         H  0.73519872  0.75299886  0.16492767     0.38900
O93         O  0.28774220  0.81474062  0.19467677    -0.81000
O94         O  0.25547051  0.69391954  0.25046588    -0.65700
O95         O  0.26618218  0.75661008  0.19319325    -1.12300
C96         C  0.18021499  0.79330366  0.23877302     1.05900
O97         O  0.21028829  0.69063577  0.23507943    -0.78900
O98         O  0.18451704  0.72836128  0.19673537    -0.66500
Ni99       Ni  0.30278430  0.77515673  0.18882714     1.34900
C100        C  0.19291116  0.74355003  0.17391412     0.84600
O101        O  0.29378789  0.70286667  0.20537230    -0.79400
O102        O  0.32081101  0.73740604  0.18180946    -0.89700
C103        C  0.23097500  0.68200168  0.25222618     0.84200
O104        O  0.31459597  0.77445188  0.23135512    -0.67900
O105        O  0.17424575  0.76650700  0.24505222    -0.87200
C106        C  0.30614556  0.75998872  0.25475864     0.85000
C107        C  0.31568732  0.71084197  0.18988497     1.06600
H108        H  0.23493299  0.75502030  0.25749938     0.38400
O109        O  0.23030049  0.74779722  0.23691406    -1.09900
O110        O  0.21117669  0.76411908  0.17621745    -0.66500
Ni111      Ni  0.23490219  0.77962881  0.20895883     1.26300
O112        O  0.28588879  0.74136786  0.25354580    -0.66700
O113        O  0.20320661  0.80151971  0.22542587    -0.79000
C114        C  0.26504858  0.82525506  0.18188817     0.84400
O115        O  0.24165875  0.81115465  0.18148366    -0.66200
Ni116      Ni  0.19356445  0.72914824  0.23978632     1.27400
Ni117      Ni  0.26195419  0.72484166  0.22158648     1.26100
H118        H  0.26116314  0.74916064  0.17280822     0.38900
O119        O  0.27852874  0.94939081  0.94709925    -0.74500
O120        O  0.27167834  0.02572154  0.98301901    -0.74600
O121        O  0.27108392  0.97056824  0.00470276    -0.74600
O122        O  0.27869563  0.00523863  0.92513604    -0.74700
O123        O  0.23098333  0.00314135  0.91788709    -0.74600
O124        O  0.22313124  0.97029822  0.99869349    -0.74600
O125        O  0.22384703  0.02533950  0.97588491    -0.74600
O126        O  0.23062463  0.94747100  0.94121326    -0.74600
Ni127      Ni  0.27668931  0.98774448  0.96510981     1.25400
Ni128      Ni  0.22537632  0.98646797  0.95804097     1.25400
C129        C  0.25577338  0.93565207  0.93868322     0.87600
C130        C  0.24680176  0.03775712  0.98611959     0.87600
C131        C  0.24585273  0.96535625  0.01501649     0.87600
C132        C  0.25609812  0.01038960  0.90863420     0.87800
O133        O  0.99255215  0.29323398  0.98322191    -0.74500
O134        O  0.05577502  0.28771751  0.92625784    -0.74600
O135        O  0.99730656  0.29127239  0.92088829    -0.74600
O136        O  0.05159861  0.28895600  0.98844158    -0.74700
O137        O  0.04869510  0.23992248  0.98924127    -0.74600
O138        O  0.99313202  0.24243908  0.92361666    -0.74600
O139        O  0.05208631  0.23854001  0.92640225    -0.74600
O140        O  0.99058033  0.24420064  0.98576411    -0.74600
Ni141      Ni  0.02441680  0.29206356  0.95473763     1.25400
Ni142      Ni  0.02112008  0.23953023  0.95623626     1.25400
C143        C  0.98056140  0.26970990  0.99334310     0.87600
C144        C  0.06438453  0.26222766  0.91703164     0.87600
C145        C  0.98540307  0.26724312  0.91183547     0.87600
C146        C  0.05960111  0.26388843  0.99959111     0.87800
O147        O  0.69265652  0.03559449  0.92008031    -0.74500
O148        O  0.69454902  0.97514959  0.98280664    -0.74600
O149        O  0.69289993  0.03522664  0.98361789    -0.74600
O150        O  0.69402008  0.97518433  0.92033012    -0.74700
O151        O  0.74172735  0.97666675  0.91987363    -0.74600
O152        O  0.74105690  0.03556247  0.98396184    -0.74600
O153        O  0.74240072  0.97605121  0.98321615    -0.74600
O154        O  0.74081387  0.03647784  0.92093767    -0.74600
Ni155      Ni  0.69179831  0.00536088  0.95162421     1.25400
Ni156      Ni  0.74317731  0.00620834  0.95190954     1.25400
C157        C  0.71657528  0.04606399  0.91033824     0.87600
C158        C  0.71875983  0.96574079  0.99373096     0.87600
C159        C  0.71687619  0.04463153  0.99482843     0.87600
C160        C  0.71808764  0.96553231  0.90980042     0.87800
O161        O  0.03740924  0.67722695  0.00300458    -0.74500
O162        O  0.97520023  0.67782914  0.94249828    -0.74600
O163        O  0.03264076  0.66978267  0.94080757    -0.74600
O164        O  0.97870367  0.68400285  0.00516203    -0.74700
O165        O  0.98610410  0.73228525  0.00157612    -0.74600
O166        O  0.03598046  0.71851135  0.93313856    -0.74600
O167        O  0.97875929  0.72648793  0.93979470    -0.74600
O168        O  0.04303826  0.72551628  0.99486309    -0.74600
Ni169      Ni  0.00574994  0.67538095  0.97325457     1.25400
Ni170      Ni  0.01111242  0.72738238  0.96713532     1.25400
C171        C  0.05104989  0.70148559  0.00796199     0.87600
C172        C  0.96700455  0.70259328  0.93062457     0.87600
C173        C  0.04289026  0.69180773  0.92624917     0.87600
C174        C  0.97337703  0.71044516  0.01411006     0.87800
O175        O  0.30479329  0.75284166  0.79089903    -0.81000
O176        O  0.26226495  0.70983145  0.66366688    -0.65700
O177        O  0.27894211  0.76032624  0.73194423    -1.12300
C178        C  0.19663171  0.71503904  0.77341138     1.05900
O179        O  0.21781622  0.72665009  0.66471078    -0.78900
O180        O  0.19297297  0.75847928  0.70962846    -0.66500
Ni181      Ni  0.31692451  0.76233789  0.74930048     1.34900
C182        C  0.20121212  0.77920773  0.72728103     0.84600
O183        O  0.30224590  0.75113613  0.67366348    -0.79400
O184        O  0.33144627  0.77268165  0.70931752    -0.89700
C185        C  0.23682860  0.71007366  0.65270403     0.84200
O186        O  0.32972031  0.72226945  0.74320712    -0.67900
O187        O  0.18869036  0.70967705  0.74550420    -0.87200
C188        C  0.32020564  0.70084977  0.72708015     0.85000
C189        C  0.32454462  0.76574646  0.68147200     1.06600
H190        H  0.24702662  0.69990120  0.72892501     0.38400
O191        O  0.24204825  0.71983688  0.72276843    -1.09900
O192        O  0.22316022  0.77686552  0.74531944    -0.66500
Ni193      Ni  0.24937521  0.74470181  0.75715951     1.26300
O194        O  0.29713449  0.70294978  0.71092418    -0.66700
O195        O  0.21993259  0.72778487  0.78127493    -0.79000
C196        C  0.28413553  0.76631049  0.80425154     0.84400
O197        O  0.25957460  0.76865867  0.79134584    -0.66200
Ni198      Ni  0.20420974  0.71821343  0.70550861     1.27400
Ni199      Ni  0.27199867  0.73501085  0.69755275     1.26100
H200        H  0.27358002  0.78021205  0.72575790     0.38900
O201        O  0.98623543  0.95772274  0.72460172    -0.74500
O202        O  0.04271365  0.01855541  0.72015094    -0.74600
O203        O  0.98431831  0.01706023  0.71718124    -0.74600
O204        O  0.04462310  0.95908104  0.72769987    -0.74700
O205        O  0.04740524  0.95360043  0.67680815    -0.74600
O206        O  0.98665745  0.01176299  0.66588759    -0.74600
O207        O  0.04486490  0.01274306  0.66872217    -0.74600
O208        O  0.98863796  0.95177123  0.67319602    -0.74600
Ni209      Ni  0.01439383  0.98829702  0.72420774     1.25400
Ni210      Ni  0.01688579  0.98217617  0.66930461     1.25400
C211        C  0.97810491  0.94485740  0.69956363     0.87600
C212        C  0.05315140  0.02548186  0.69372552     0.87600
C213        C  0.97578344  0.02447062  0.68985635     0.87600
C214        C  0.05650746  0.94684481  0.70417079     0.87800
O215        O  0.31788663  0.17578613  0.74406681    -0.81000
O216        O  0.26811222  0.28115524  0.66402807    -0.65700
O217        O  0.28871638  0.23032837  0.73111551    -1.12300
C218        C  0.20341501  0.18181918  0.69829949     1.05900
O219        O  0.22427198  0.28573976  0.68302139    -0.78900
O220        O  0.20502604  0.25177455  0.72984816    -0.66500
Ni221      Ni  0.32782999  0.21690816  0.73717397     1.34900
C222        C  0.21496493  0.23864759  0.75374393     0.84600
O223        O  0.30905656  0.28366756  0.70689154    -0.79400
O224        O  0.34267362  0.25661155  0.73214989    -0.89700
C225        C  0.24366621  0.29379436  0.66435221     0.84200
O226        O  0.33552573  0.20791380  0.69481386    -0.67900
O227        O  0.19486110  0.20721197  0.68912220    -0.87200
C228        C  0.32581363  0.21863580  0.66951746     0.85000
C229        C  0.33360075  0.28068389  0.71979275     1.06600
H230        H  0.25310941  0.21971577  0.66909697     0.38400
O231        O  0.24949923  0.22939298  0.68869594    -1.09900
O232        O  0.23539856  0.21986325  0.75255042    -0.66500
Ni233      Ni  0.25906946  0.20256036  0.72085448     1.26300
O234        O  0.30442039  0.23655477  0.66786035    -0.66700
O235        O  0.22843585  0.17628655  0.70971199    -0.79000
C236        C  0.29519310  0.16381670  0.75455642     0.84400
O237        O  0.27046168  0.17562972  0.75205805    -0.66200
Ni238      Ni  0.21124329  0.24571825  0.68656138     1.27400
Ni239      Ni  0.27957350  0.25628377  0.69740177     1.26100
H240        H  0.28359840  0.24061272  0.74999755     0.38900
O241        O  0.82026867  0.28749528  0.73291469    -0.81000
O242        O  0.71147432  0.25075712  0.65780002    -0.65700
O243        O  0.76577559  0.26269597  0.72304243    -1.12300
C244        C  0.81311436  0.17707765  0.68313576     1.05900
O245        O  0.71068456  0.20165308  0.66130390    -0.78900
O246        O  0.74052714  0.17991941  0.71109491    -0.66500
Ni247      Ni  0.78074520  0.30118156  0.73195717     1.34900
C248        C  0.75328850  0.18680716  0.73632513     0.84600
O249        O  0.71316343  0.28849852  0.70526071    -0.79400
O250        O  0.74257971  0.31819836  0.73289699    -0.89700
C251        C  0.69986302  0.22609905  0.65182161     0.84200
O252        O  0.78518331  0.31467091  0.69019283    -0.67900
O253        O  0.78802517  0.16979714  0.67337823    -0.87200
C254        C  0.77288073  0.30747583  0.66480943     0.85000
C255        C  0.71800914  0.31186438  0.72116172     1.06600
H256        H  0.77400098  0.23368954  0.65738499     0.38400
O257        O  0.76489077  0.22735967  0.67635433    -1.09900
O258        O  0.77378200  0.20531487  0.73776058    -0.66500
Ni259      Ni  0.79201480  0.23243062  0.70967916     1.26300
O260        O  0.75597788  0.28553251  0.66231633    -0.66700
O261        O  0.81807299  0.20197617  0.69586157    -0.79000
C262        C  0.82880803  0.26498319  0.74819362     0.84400
O263        O  0.81803324  0.23982841  0.74296206    -0.66200
Ni264      Ni  0.75012394  0.18831046  0.66884116     1.27400
Ni265      Ni  0.73859102  0.25776300  0.69030585     1.26100
H266        H  0.75655703  0.25633574  0.74188241     0.38900
O267        O  0.71513435  0.79632369  0.65782147    -0.81000
O268        O  0.80022991  0.74831143  0.76308052    -0.65700
O269        O  0.75802289  0.76365956  0.68900652    -1.12300
C270        C  0.69592286  0.69076739  0.72839685     1.05900
O271        O  0.79859910  0.69976454  0.75617329    -0.78900
O272        O  0.76898916  0.67973336  0.70538766    -0.66500
Ni273      Ni  0.75127374  0.80445170  0.67818949     1.34900
C274        C  0.75664884  0.68599556  0.67972486     0.84600
O275        O  0.81167447  0.77947448  0.71322963    -0.79400
O276        O  0.78775417  0.81850394  0.69462716    -0.89700
C277        C  0.80910580  0.72252906  0.76932165     0.81800
O278        O  0.73216844  0.81285076  0.71625645    -0.67900
O279        O  0.71924179  0.67934121  0.73916912    -0.87200
C280        C  0.74322766  0.80963611  0.74318088     0.85000
C281        C  0.81098821  0.80586729  0.70369655     1.06600
H282        H  0.73938864  0.74020830  0.75531055     0.38400
O283        O  0.74872147  0.73227616  0.73776987    -1.09900
O284        O  0.73926363  0.70775844  0.67662745    -0.66500
Ni285      Ni  0.72572785  0.74026494  0.70217656     1.26300
O286        O  0.76304494  0.79034269  0.74890612    -0.66700
O287        O  0.69455453  0.71649211  0.71639191    -0.79000
C288        C  0.69955519  0.77374942  0.65315033     0.84400
O289        O  0.70278551  0.74959561  0.66739076    -0.66200
Ni290      Ni  0.75847685  0.69170684  0.74653856     1.27400
Ni291      Ni  0.77976741  0.75674598  0.72611797     1.26100
H292        H  0.76770791  0.75424523  0.67198097     0.38900
O293        O  0.47850670  0.46174683  0.74320774    -0.74500
O294        O  0.53346619  0.52448063  0.74740035    -0.74600
O295        O  0.47528551  0.52193588  0.74359972    -0.74600
O296        O  0.53719761  0.46461766  0.74720124    -0.74700
O297        O  0.53956344  0.46472430  0.69558209    -0.74600
O298        O  0.47749597  0.52242399  0.69196824    -0.74600
O299        O  0.53598609  0.52443576  0.69560697    -0.74600
O300        O  0.48057613  0.46235572  0.69141393    -0.74600
Ni301      Ni  0.50597910  0.49311536  0.74718058     1.25400
Ni302      Ni  0.50846010  0.49342814  0.69180505     1.25400
C303        C  0.47038536  0.45191681  0.71661318     0.87600
C304        C  0.54370681  0.53467017  0.72209525     0.87600
C305        C  0.46628489  0.53191320  0.71731795     0.87600
C306        C  0.54913138  0.45566001  0.72206372     0.87800
O307        O  0.53246096  0.47988809  0.15737540    -0.74500
O308        O  0.46854545  0.53285167  0.14538211    -0.74600
O309        O  0.52603680  0.53896285  0.14687578    -0.74600
O310        O  0.47396704  0.47370083  0.15675887    -0.74700
O311        O  0.47382917  0.48163925  0.20756662    -0.74600
O312        O  0.52557242  0.54651554  0.19773854    -0.74600
O313        O  0.46756525  0.54086709  0.19654261    -0.74600
O314        O  0.53171700  0.48796327  0.20855591    -0.74600
Ni315      Ni  0.50030858  0.50591624  0.14979003     1.25400
Ni316      Ni  0.49954108  0.51451948  0.20440048     1.25400
C317        C  0.54263496  0.47537074  0.18472991     0.87600
C318        C  0.45822161  0.54629968  0.16897448     0.87600
C319        C  0.53410007  0.55396533  0.17067177     0.87600
C320        C  0.46525773  0.46668361  0.18400593     0.87800
O321        O  0.74797794  0.53141319  0.42355447    -0.74500
O322        O  0.75509460  0.47165455  0.48752767    -0.74600
O323        O  0.74988007  0.53140821  0.48736746    -0.74600
O324        O  0.75346952  0.47120392  0.42452605    -0.74700
O325        O  0.80086186  0.47630599  0.42190798    -0.74600
O326        O  0.79765809  0.53536112  0.48640375    -0.74600
O327        O  0.80303138  0.47498918  0.48557210    -0.74600
O328        O  0.79580534  0.53622575  0.42314712    -0.74600
Ni329      Ni  0.74993624  0.50134676  0.45574070     1.25400
Ni330      Ni  0.80104475  0.50583045  0.45426380     1.25400
C331        C  0.77071033  0.54372939  0.41282114     0.87600
C332        C  0.78023412  0.46333946  0.49691860     0.87600
C333        C  0.77318340  0.54315010  0.49767434     0.87600
C334        C  0.77763339  0.46381723  0.41241581     0.87800
O335        O  0.52718880  0.76111047  0.48865631    -0.74500
O336        O  0.46529472  0.76141536  0.43007326    -0.74600
O337        O  0.52370935  0.76332376  0.42666859    -0.74600
O338        O  0.46916652  0.75993652  0.49270144    -0.74700
O339        O  0.46643774  0.80919549  0.49256166    -0.74600
O340        O  0.52300803  0.81264074  0.42975732    -0.74600
O341        O  0.46432119  0.81085699  0.43045779    -0.74600
O342        O  0.52479801  0.81033835  0.49199200    -0.74600
Ni343      Ni  0.49632860  0.75964852  0.45938989     1.25400
Ni344      Ni  0.49456854  0.81253300  0.46119288     1.25400
C345        C  0.53613173  0.78549533  0.50008525     0.87600
C346        C  0.45452994  0.78604023  0.42078828     0.87600
C347        C  0.53296541  0.78865764  0.41817389     0.87600
C348        C  0.45895404  0.78425004  0.50356871     0.87800
O349        O  0.24073319  0.46648731  0.43992806    -0.74500
O350        O  0.23744703  0.53133605  0.49676095    -0.74600
O351        O  0.24090465  0.47191741  0.50190647    -0.74600
O352        O  0.23692643  0.52613310  0.43448516    -0.74700
O353        O  0.18902133  0.52524990  0.43592842    -0.74600
O354        O  0.19339156  0.46848946  0.50176862    -0.74600
O355        O  0.18944643  0.52817488  0.49823466    -0.74600
O356        O  0.19262372  0.46470082  0.43922328    -0.74600
Ni357      Ni  0.24068615  0.49907204  0.46822146     1.25400
Ni358      Ni  0.18936469  0.49651373  0.46868892     1.25400
C359        C  0.21723525  0.45463391  0.43055882     0.87600
C360        C  0.21300722  0.54035895  0.50692710     0.87600
C361        C  0.21798644  0.46082306  0.51305202     0.87600
C362        C  0.21235648  0.53574921  0.42486678     0.87800
O363        O  0.46812585  0.22524189  0.48228963    -0.74500
O364        O  0.52891026  0.23222747  0.42328436    -0.74600
O365        O  0.47099742  0.22767624  0.41980625    -0.74600
O366        O  0.52647204  0.22967745  0.48597031    -0.74700
O367        O  0.52880084  0.18056370  0.48624962    -0.74600
O368        O  0.47692377  0.17879105  0.41620356    -0.74600
O369        O  0.53469875  0.18317947  0.42310528    -0.74600
O370        O  0.47059633  0.17614441  0.47851173    -0.74600
Ni371      Ni  0.49851029  0.23042798  0.45296094     1.25400
Ni372      Ni  0.50297222  0.17786885  0.45100269     1.25400
C373        C  0.45875552  0.19960727  0.48953606     0.87600
C374        C  0.54179274  0.20890811  0.41343289     0.87600
C375        C  0.46518290  0.20295884  0.40674696     0.87600
C376        C  0.53642392  0.20556485  0.49764841     0.87800
C377        C  0.67631835  0.77549439  0.63008392     0.01200
C378        C  0.67543910  0.75475338  0.60557645     0.04000
C379        C  0.65265619  0.75581369  0.58392802    -0.12000
C380        C  0.63062865  0.77723690  0.58716078     0.23300
C381        C  0.63110978  0.79738242  0.61215105    -0.12600
C382        C  0.65416088  0.79674276  0.63346812     0.04800
C383        C  0.60684349  0.77880139  0.56430488     0.27200
C384        C  0.60807263  0.79924972  0.53974868    -0.13300
C385        C  0.58466486  0.80206573  0.51893973     0.05300
C386        C  0.55996965  0.78439243  0.52287763    -0.09200
C387        C  0.55894009  0.76383508  0.54754872     0.06100
C388        C  0.58255600  0.76077392  0.56794814    -0.13600
Br389      Br  0.59966144  0.82518092  0.61763868    -0.05700
Br390      Br  0.70569644  0.72523688  0.60122981    -0.00100
Br391      Br  0.58736350  0.82905109  0.48435400     0.00400
Br392      Br  0.58191248  0.73168481  0.60077632    -0.04000
Br393      Br  0.65449354  0.82377477  0.66830789     0.00500
Br394      Br  0.65140769  0.72783677  0.55003538    -0.03300
Br395      Br  0.64226638  0.82281585  0.53445736    -0.04200
Br396      Br  0.52467728  0.74074126  0.55458853    -0.00200
C397        C  0.76073325  0.66575798  0.65277399     0.01200
C398        C  0.77437915  0.67531031  0.62543362     0.04000
C399        C  0.77580829  0.65650439  0.59915929    -0.12000
C400        C  0.76440056  0.62762992  0.60033912     0.23300
C401        C  0.75094579  0.61807857  0.62778558    -0.12600
C402        C  0.74900842  0.63704505  0.65376365     0.04800
C403        C  0.76723837  0.60689205  0.57325544     0.27200
C404        C  0.74613475  0.60653838  0.54942217    -0.13300
C405        C  0.74846746  0.58642068  0.52436184     0.05300
C406        C  0.77167594  0.56570518  0.52322035    -0.09200
C407        C  0.79285731  0.56617767  0.54728428     0.06100
C408        C  0.79061195  0.58670463  0.57196959    -0.13600
Br409      Br  0.73469078  0.57898571  0.62958456    -0.05700
Br410      Br  0.79250293  0.71350476  0.62464459    -0.00100
Br411      Br  0.72022211  0.58865187  0.49101639     0.00400
Br412      Br  0.81932559  0.58675626  0.60478469    -0.04000
Br413      Br  0.72942424  0.62383151  0.69055273     0.00500
Br414      Br  0.79301388  0.67038772  0.56133676    -0.03300
Br415      Br  0.71351848  0.63333378  0.55158755    -0.04200
Br416      Br  0.82450349  0.53791089  0.54801611    -0.00200
C417        C  0.66982097  0.67208647  0.72836500     0.01200
C418        C  0.66197633  0.65673589  0.75555431     0.04000
C419        C  0.64039187  0.63507009  0.75421716    -0.12000
C420        C  0.62617785  0.62902577  0.72589655     0.23300
C421        C  0.63324918  0.64484684  0.69894603    -0.12600
C422        C  0.65503099  0.66629507  0.70010687     0.04800
C423        C  0.60472264  0.60502178  0.72424379     0.27200
C424        C  0.61324030  0.57668921  0.71388079    -0.13300
C425        C  0.59317778  0.55359745  0.71315475     0.05300
C426        C  0.56473166  0.55870170  0.72329801    -0.09200
C427        C  0.55615718  0.58702364  0.73358397     0.06100
C428        C  0.57606876  0.61029843  0.73365316    -0.13600
Br429      Br  0.61412448  0.63574736  0.66003096    -0.05700
Br430      Br  0.68058924  0.66538140  0.79480916    -0.00100
Br431      Br  0.60488962  0.51479091  0.69896782     0.00400
Br432      Br  0.56409420  0.64955561  0.74599589    -0.04000
Br433      Br  0.66602999  0.68547969  0.66208802     0.00500
Br434      Br  0.63119673  0.61239180  0.79076407    -0.03300
Br435      Br  0.65243534  0.56958398  0.70067621    -0.04200
Br436      Br  0.51690719  0.59412379  0.74659608    -0.00200
C437        C  0.77671590  0.32694027  0.63731848     0.01200
C438        C  0.80428210  0.33760540  0.62929985     0.04000
C439        C  0.80704500  0.35889940  0.60553005    -0.12000
C440        C  0.78239821  0.36937482  0.58928353     0.23300
C441        C  0.75504238  0.35804666  0.59657737    -0.12600
C442        C  0.75207782  0.33738561  0.62075932     0.04800
C443        C  0.78460699  0.39365030  0.56589704     0.27200
C444        C  0.77990068  0.42325246  0.57506665    -0.13300
C445        C  0.77880800  0.44605751  0.55266820     0.05300
C446        C  0.78277757  0.43956147  0.52085324    -0.09200
C447        C  0.78764546  0.40988790  0.51178580     0.06100
C448        C  0.78880631  0.38708110  0.53422800    -0.13600
Br449      Br  0.72125717  0.37191987  0.57411730    -0.05700
Br450      Br  0.83839161  0.32313143  0.65075898    -0.00100
Br451      Br  0.77051586  0.48596080  0.56566282     0.00400
Br452      Br  0.79527832  0.34657821  0.52172888    -0.04000
Br453      Br  0.71357902  0.32648075  0.63322955     0.00500
Br454      Br  0.84448641  0.37448967  0.59578667    -0.03300
Br455      Br  0.77405440  0.43222899  0.61846509    -0.04200
Br456      Br  0.79062560  0.40018050  0.46834317    -0.00200
C457        C  0.55704197  0.20718320  0.52455476     0.01200
C458        C  0.55442811  0.23058903  0.54644149     0.04000
C459        C  0.57595880  0.23495438  0.56929401    -0.12000
C460        C  0.59960358  0.21531884  0.57154750     0.23300
C461        C  0.60131726  0.19077291  0.55144164    -0.12600
C462        C  0.58023597  0.18662167  0.52798863     0.04800
C463        C  0.62352132  0.22095580  0.59404550     0.27200
C464        C  0.64679576  0.23875862  0.58512809    -0.13300
C465        C  0.67155098  0.24073344  0.60418942     0.05300
C466        C  0.67284464  0.22566106  0.63294330    -0.09200
C467        C  0.64868125  0.20926797  0.64270056     0.06100
C468        C  0.62421485  0.20672118  0.62314216    -0.13600
Br469      Br  0.63345786  0.16339259  0.55563076    -0.05700
Br470      Br  0.52053783  0.25595564  0.54693949    -0.00100
Br471      Br  0.70464685  0.26170723  0.58896796     0.00400
Br472      Br  0.59177271  0.18319990  0.63566129    -0.04000
Br473      Br  0.58450694  0.15314424  0.50039543     0.00500
Br474      Br  0.57357961  0.26834976  0.59720030    -0.03300
Br475      Br  0.64509617  0.25960796  0.54602522    -0.04200
Br476      Br  0.64859977  0.19071364  0.68302280    -0.00200
C477        C  0.69434770  0.33383706  0.72499033     0.01200
C478        C  0.66827773  0.32611896  0.73949832     0.04000
C479        C  0.64597516  0.34734577  0.74262253    -0.12000
C480        C  0.64849112  0.37542852  0.72876140     0.23300
C481        C  0.67455533  0.38321006  0.71435432    -0.12600
C482        C  0.69782647  0.36294188  0.71362946     0.04800
C483        C  0.62304310  0.39587108  0.72742622     0.27200
C484        C  0.60191391  0.39214399  0.70405829    -0.13300
C485        C  0.57746250  0.41100645  0.70270081     0.05300
C486        C  0.57463289  0.43497256  0.72381348    -0.09200
C487        C  0.59654449  0.43904335  0.74673718     0.06100
C488        C  0.61983752  0.41876600  0.74931989    -0.13600
Br489      Br  0.67803626  0.42128397  0.69457224    -0.05700
Br490      Br  0.66309985  0.28668742  0.75542508    -0.00100
Br491      Br  0.54747782  0.40248431  0.67266666     0.00400
Br492      Br  0.64690712  0.42137411  0.78358793    -0.04000
Br493      Br  0.73414244  0.37514085  0.69611627     0.00500
Br494      Br  0.61202145  0.33839615  0.76631050    -0.03300
Br495      Br  0.60656201  0.36058407  0.67410991    -0.04200
Br496      Br  0.59656439  0.47358377  0.77322352    -0.00200
C497        C  0.43411081  0.19737580  0.51123870     0.01200
C498        C  0.43519226  0.17719057  0.53630144     0.04000
C499        C  0.41357605  0.17794043  0.55908323    -0.12000
C500        C  0.39100073  0.19907920  0.55733850     0.23300
C501        C  0.38895657  0.21809288  0.53150019    -0.12600
C502        C  0.41012573  0.21687016  0.50820034     0.04800
C503        C  0.37295278  0.20455613  0.58520029     0.27200
C504        C  0.34453696  0.19371714  0.58747679    -0.13300
C505        C  0.32877668  0.19815590  0.61509462     0.05300
C506        C  0.34200453  0.21200509  0.64088947    -0.09200
C507        C  0.37092580  0.22137561  0.63890261     0.06100
C508        C  0.38552482  0.21944572  0.61060394    -0.13600
Br509      Br  0.35842361  0.24742177  0.52939601    -0.05700
Br510      Br  0.46753998  0.15026188  0.54153511    -0.00100
Br511      Br  0.28997643  0.18343890  0.61853287     0.00400
Br512      Br  0.42257355  0.23826263  0.60619226    -0.04000
Br513      Br  0.40584101  0.24174801  0.47192550     0.00500
Br514      Br  0.41620703  0.15170403  0.59443563    -0.03300
Br515      Br  0.32739771  0.17291604  0.55290998    -0.04200
Br516      Br  0.39133049  0.23627965  0.67498482    -0.00200
C517        C  0.22026369  0.43827221  0.53851163     0.01200
C518        C  0.19511100  0.42436164  0.55053113     0.04000
C519        C  0.19793683  0.40119002  0.57217751    -0.12000
C520        C  0.22539718  0.39162280  0.58197361     0.23300
C521        C  0.25024987  0.40559090  0.57135380    -0.12600
C522        C  0.24794396  0.42923130  0.55036014     0.04800
C523        C  0.22844060  0.36632106  0.60324223     0.27200
C524        C  0.22836382  0.37101392  0.63557783    -0.13300
C525        C  0.23289447  0.34706188  0.65575523     0.05300
C526        C  0.23791651  0.31862340  0.64347303    -0.09200
C527        C  0.23746599  0.31384106  0.61111906     0.06100
C528        C  0.23296557  0.33779809  0.59096182    -0.13600
Br529      Br  0.28775286  0.39134962  0.58543781    -0.05700
Br530      Br  0.15611303  0.43601533  0.53886711    -0.00100
Br531      Br  0.23328997  0.35337953  0.70011432     0.00400
Br532      Br  0.23399400  0.33193713  0.54651728    -0.04000
Br533      Br  0.28379328  0.44849487  0.53979238     0.00500
Br534      Br  0.16423962  0.38166818  0.58837816    -0.03300
Br535      Br  0.22328281  0.41043533  0.65202682    -0.04200
Br536      Br  0.24183363  0.27436527  0.59444300    -0.00200
C537        C  0.35277859  0.30651419  0.71889598     0.01200
C538        C  0.36136078  0.32091054  0.74648235     0.04000
C539        C  0.37838046  0.34650459  0.74498869    -0.12000
C540        C  0.38793401  0.35697308  0.71601838     0.23300
C541        C  0.37961761  0.34237998  0.68845709    -0.12600
C542        C  0.36143105  0.31771400  0.68983064     0.04800
C543        C  0.40894111  0.38150333  0.71492518     0.27200
C544        C  0.40008944  0.41039915  0.70659389    -0.13300
C545        C  0.42049537  0.43331827  0.70574019     0.05300
C546        C  0.44932145  0.42772021  0.71508057    -0.09200
C547        C  0.45803519  0.39886838  0.72345917     0.06100
C548        C  0.43804193  0.37571424  0.72277556    -0.13600
Br549      Br  0.39424793  0.35528752  0.64891269    -0.05700
Br550      Br  0.34928864  0.30602600  0.78620977    -0.00100
Br551      Br  0.40897263  0.47227468  0.69185077     0.00400
Br552      Br  0.45037723  0.33589046  0.73287288    -0.04000
Br553      Br  0.34897339  0.29894390  0.65166609     0.00500
Br554      Br  0.38919801  0.36711300  0.78261062    -0.03300
Br555      Br  0.35991701  0.41870710  0.69761161    -0.04200
Br556      Br  0.49756660  0.39085925  0.73532902    -0.00200
C557        C  0.95572122  0.92213001  0.70114081     0.01200
C558        C  0.96203080  0.89267647  0.69266419     0.04000
C559        C  0.94014016  0.87126615  0.69338004    -0.12000
C560        C  0.91231624  0.87910349  0.70391041     0.23300
C561        C  0.90643597  0.90839015  0.71338861    -0.12600
C562        C  0.92783869  0.93003741  0.71111558     0.04800
C563        C  0.88842397  0.85747239  0.70317226     0.27200
C564        C  0.87190486  0.85413279  0.67575836    -0.13300
C565        C  0.84708311  0.83646704  0.67574468     0.05300
C566        C  0.83813597  0.82276256  0.70342498    -0.09200
C567        C  0.85505924  0.82555644  0.73075290     0.06100
C568        C  0.88028740  0.84271448  0.73051356    -0.13600
Br569      Br  0.86880517  0.91894584  0.72909121    -0.05700
Br570      Br  0.00084119  0.88171703  0.68092473    -0.00100
Br571      Br  0.82589972  0.83032833  0.63743354     0.00400
Br572      Br  0.90308065  0.84721682  0.76795854    -0.04000
Br573      Br  0.91833401  0.97097483  0.71939168     0.00500
Br574      Br  0.94804656  0.83149932  0.67940522    -0.03300
Br575      Br  0.88263934  0.87494911  0.63853438    -0.04200
Br576      Br  0.84281363  0.80767588  0.76913036    -0.00200
C577        C  0.95330122  0.04830268  0.68614222     0.01200
C578        C  0.93149013  0.04616483  0.66294403     0.04000
C579        C  0.91055114  0.06888129  0.65939373    -0.12000
C580        C  0.90992241  0.09312104  0.68006047     0.23300
C581        C  0.93143385  0.09528655  0.70334964    -0.12600
C582        C  0.95332002  0.07340839  0.70604162     0.04800
C583        C  0.88499171  0.11454909  0.67933085     0.27200
C584        C  0.88774808  0.14309792  0.66653595    -0.13300
C585        C  0.86461288  0.16374541  0.66826076     0.05300
C586        C  0.83755514  0.15520085  0.68036991    -0.09200
C587        C  0.83432916  0.12570080  0.69086876     0.06100
C588        C  0.85823391  0.10608991  0.69167797    -0.13600
Br589      Br  0.93024861  0.12788741  0.73239028    -0.05700
Br590      Br  0.92808656  0.01091779  0.63777064    -0.00100
Br591      Br  0.87000024  0.20343133  0.65298178     0.00400
Br592      Br  0.85464357  0.06751866  0.71051070    -0.04000
Br593      Br  0.98353518  0.07880184  0.73684317     0.00500
Br594      Br  0.88200202  0.06660813  0.62652825    -0.03300
Br595      Br  0.92294748  0.15337221  0.64566238    -0.04200
Br596      Br  0.79741437  0.11156827  0.70472887    -0.00200
C597        C  0.07571457  0.04791427  0.69202213     0.01200
C598        C  0.10154983  0.04395205  0.70916240     0.04000
C599        C  0.12356716  0.06484030  0.70702052    -0.12000
C600        C  0.11972833  0.08974959  0.68788742     0.23300
C601        C  0.09418724  0.09359580  0.67029160    -0.12600
C602        C  0.07199318  0.07277915  0.67255998     0.04800
C603        C  0.14102763  0.11359540  0.68954986     0.27200
C604        C  0.13660189  0.13679226  0.71082279    -0.13300
C605        C  0.15708288  0.15922406  0.71356559     0.05300
C606        C  0.18253538  0.15784530  0.69585403    -0.09200
C607        C  0.18687601  0.13472435  0.67441381     0.06100
C608        C  0.16602265  0.11254513  0.67121028    -0.13600
Br609      Br  0.08948919  0.12786821  0.64394010    -0.05700
Br610      Br  0.10718720  0.00984467  0.73542006    -0.00100
Br611      Br  0.14977920  0.19193252  0.74132472     0.00400
Br612      Br  0.17148041  0.08077421  0.64184688    -0.04000
Br613      Br  0.03574541  0.07963835  0.65104454     0.00500
Br614      Br  0.15882896  0.05990455  0.73091345    -0.03300
Br615      Br  0.10258487  0.13742947  0.73657177    -0.04200
Br616      Br  0.22034290  0.13462391  0.64806097    -0.00200
C617        C  0.22858908  0.68851308  0.62881424     0.01200
C618        C  0.20721196  0.66744604  0.63567442     0.04000
C619        C  0.20258490  0.64358450  0.61546656    -0.12000
C620        C  0.21859323  0.64126683  0.58796887     0.23300
C621        C  0.23891690  0.66299857  0.58032879    -0.12600
C622        C  0.24404683  0.68659615  0.60084868     0.04800
C623        C  0.21555431  0.61488640  0.56811195     0.27200
C624        C  0.23179398  0.58927456  0.57518079    -0.13300
C625        C  0.22993764  0.56438833  0.55580184     0.05300
C626        C  0.21227943  0.56531243  0.52891536    -0.09200
C627        C  0.19538887  0.59079330  0.52232184     0.06100
C628        C  0.19712638  0.61561744  0.54194953    -0.13600
Br629      Br  0.26063946  0.65940631  0.54244113    -0.05700
Br630      Br  0.18555967  0.66957127  0.67379732    -0.00100
Br631      Br  0.25080996  0.52868291  0.56690617     0.00400
Br632      Br  0.17530821  0.65117866  0.53256174    -0.04000
Br633      Br  0.27199635  0.71636345  0.59057664     0.00500
Br634      Br  0.17582312  0.61286404  0.62646155    -0.03300
Br635      Br  0.25728799  0.58878923  0.61099372    -0.04200
Br636      Br  0.17105491  0.59256777  0.48567424    -0.00200
C637        C  0.34471022  0.77314171  0.65699954     0.01200
C638        C  0.37267532  0.76064324  0.65823595     0.04000
C639        C  0.39135850  0.76451477  0.63327126    -0.12000
C640        C  0.38229585  0.78142723  0.60748279     0.23300
C641        C  0.35466879  0.79466467  0.60661942    -0.12600
C642        C  0.33557915  0.79006246  0.63119679     0.04800
C643        C  0.40101099  0.78318330  0.58021479     0.27200
C644        C  0.42266514  0.80466704  0.57899409    -0.13300
C645        C  0.44189465  0.80479740  0.55406038     0.05300
C646        C  0.43869184  0.78397536  0.52965197    -0.09200
C647        C  0.41581362  0.76352415  0.53019542     0.06100
C648        C  0.39735514  0.76280350  0.55581055    -0.13600
Br649      Br  0.34284279  0.81808699  0.57118315    -0.05700
Br650      Br  0.38459037  0.73589047  0.69280693    -0.00100
Br651      Br  0.47312588  0.83301128  0.55460739     0.00400
Br652      Br  0.36677648  0.73404662  0.55762402    -0.04000
Br653      Br  0.29691641  0.80638545  0.62921319     0.00500
Br654      Br  0.42865032  0.74505843  0.63351963    -0.03300
Br655      Br  0.42561874  0.83411605  0.61139596    -0.04200
Br656      Br  0.40813259  0.73781778  0.49523923    -0.00200
C657        C  0.33775957  0.67275017  0.72582857     0.01200
C658        C  0.34126169  0.65720947  0.69733248     0.04000
C659        C  0.35997471  0.63240420  0.69558773    -0.12000
C660        C  0.37715018  0.62407677  0.72141648     0.23300
C661        C  0.37372828  0.63933874  0.74980163    -0.12600
C662        C  0.35336934  0.66266419  0.75234043     0.04800
C663        C  0.39919090  0.59971861  0.71867191     0.27200
C664        C  0.39552545  0.57281490  0.73462489    -0.13300
C665        C  0.41788415  0.55139801  0.73532642     0.05300
C666        C  0.44264413  0.55476224  0.71657485    -0.09200
C667        C  0.44493306  0.58062687  0.69813556     0.06100
C668        C  0.42428053  0.60371255  0.70082310    -0.13600
Br669      Br  0.39785238  0.62897017  0.78512978    -0.05700
Br670      Br  0.32275127  0.67074033  0.65942212    -0.00100
Br671      Br  0.41393587  0.51756222  0.76227966     0.00400
Br672      Br  0.43100709  0.64150695  0.68127565    -0.04000
Br673      Br  0.34618650  0.67956197  0.79281754     0.00500
Br674      Br  0.36240927  0.60981415  0.65749100    -0.03300
Br675      Br  0.35945711  0.56511497  0.75515080    -0.04200
Br676      Br  0.47645728  0.58536609  0.66957929    -0.00200
C677        C  0.18303817  0.80658417  0.72747947     0.01200
C678        C  0.15283878  0.80425127  0.73210297     0.04000
C679        C  0.13498474  0.82960249  0.73075249    -0.12000
C680        C  0.14677614  0.85734197  0.72363944     0.23300
C681        C  0.17681209  0.85998588  0.71977190    -0.12600
C682        C  0.19492830  0.83468891  0.72157869     0.04800
C683        C  0.12691356  0.88293649  0.71787225     0.27200
C684        C  0.11438481  0.88675001  0.68831027    -0.13300
C685        C  0.09148659  0.90716758  0.68364612     0.05300
C686        C  0.08118742  0.92495836  0.70879781    -0.09200
C687        C  0.09528864  0.92168796  0.73842537     0.06100
C688        C  0.11829844  0.90125773  0.74244697    -0.13600
Br689      Br  0.19274686  0.89835689  0.71131037    -0.05700
Br690      Br  0.13521760  0.76630347  0.73965659    -0.00100
Br691      Br  0.07401014  0.90802394  0.64261104     0.00400
Br692      Br  0.13884958  0.89824867  0.78167604    -0.04000
Br693      Br  0.23544841  0.83828382  0.71278732     0.00500
Br694      Br  0.09402563  0.82650721  0.73836089    -0.03300
Br695      Br  0.12926683  0.86360132  0.65405032    -0.04200
Br696      Br  0.08371107  0.94353230  0.77506865    -0.00200
C697        C  0.06440673  0.68651117  0.90244689     0.01200
C698        C  0.05886187  0.69497016  0.87150202     0.04000
C699        C  0.08156010  0.69496633  0.85024018    -0.12000
C700        C  0.10969467  0.68778380  0.86056550     0.23300
C701        C  0.11478345  0.67736878  0.89085864    -0.12600
C702        C  0.09177953  0.67559843  0.91150238     0.04800
C703        C  0.13411027  0.69394949  0.84043375     0.27200
C704        C  0.14686490  0.67101447  0.82308589    -0.13300
C705        C  0.16811921  0.67777825  0.80141755     0.05300
C706        C  0.17693175  0.70728648  0.79799241    -0.09200
C707        C  0.16534664  0.72999117  0.81669682     0.06100
C708        C  0.14366431  0.72330527  0.83779164    -0.13600
Br709      Br  0.15351708  0.66772160  0.90469289    -0.05700
Br710      Br  0.02035307  0.70615083  0.85834754    -0.00100
Br711      Br  0.18504846  0.64679766  0.77636568     0.00400
Br712      Br  0.12621804  0.75452371  0.86220953    -0.04000
Br713      Br  0.09817957  0.65928043  0.95244138     0.00500
Br714      Br  0.07475109  0.70614736  0.80745216    -0.03300
Br715      Br  0.13475947  0.63064200  0.82864176    -0.04200
Br716      Br  0.17748313  0.77062010  0.81201850    -0.00200
C717        C  0.94403609  0.70430923  0.90580234     0.01200
C718        C  0.94007646  0.73094264  0.88822521     0.04000
C719        C  0.91700577  0.73368450  0.86697751    -0.12000
C720        C  0.89930266  0.70943006  0.86071591     0.23300
C721        C  0.90387545  0.68249053  0.87621209    -0.12600
C722        C  0.92572003  0.67987899  0.89908831     0.04800
C723        C  0.87609387  0.71226277  0.83716134     0.27200
C724        C  0.84831247  0.72147959  0.84622018    -0.13300
C725        C  0.82646606  0.72503614  0.82375603     0.05300
C726        C  0.83229786  0.71904419  0.79233418    -0.09200
C727        C  0.86024333  0.71057815  0.78308982     0.06100
C728        C  0.88216981  0.70700969  0.80559123    -0.13600
Br729      Br  0.87972705  0.64920095  0.86568562    -0.05700
Br730      Br  0.96681225  0.76372164  0.88984310    -0.00100
Br731      Br  0.78851479  0.73821636  0.83601227     0.00400
Br732      Br  0.92063775  0.69541540  0.79337237    -0.04000
Br733      Br  0.92939936  0.64229101  0.92024065     0.00500
Br734      Br  0.90919210  0.77089993  0.84606155    -0.03300
Br735      Br  0.84034426  0.72953140  0.88935345    -0.04200
Br736      Br  0.86878757  0.70584667  0.73956525    -0.00200
C737        C  0.73431028  0.83086291  0.76803423     0.01200
C738        C  0.73392043  0.86169857  0.76176912     0.04000
C739        C  0.72794024  0.88219028  0.78558804    -0.12000
C740        C  0.72227714  0.87231298  0.81587613     0.23300
C741        C  0.72184856  0.84173500  0.82217330    -0.12600
C742        C  0.72770666  0.82107047  0.79834841     0.04800
C743        C  0.72015698  0.89437291  0.84150608     0.27200
C744        C  0.74508237  0.90138797  0.85869982    -0.13300
C745        C  0.74441888  0.92399655  0.88124671     0.05300
C746        C  0.71867660  0.94094485  0.88612934    -0.09200
C747        C  0.69351996  0.93360899  0.86835499     0.06100
C748        C  0.69429826  0.91004847  0.84676667    -0.13600
Br749      Br  0.71446785  0.82843921  0.86393675    -0.05700
Br750      Br  0.74394566  0.87674043  0.72129700    -0.00100
Br751      Br  0.77949974  0.93001886  0.90518934     0.00400
Br752      Br  0.65998766  0.89921631  0.82366075    -0.04000
Br753      Br  0.72579962  0.77946641  0.80740328     0.00500
Br754      Br  0.72946341  0.92422042  0.77743367    -0.03300
Br755      Br  0.78064590  0.88003095  0.85043736    -0.04200
Br756      Br  0.65776798  0.95601408  0.87122042    -0.00200
C757        C  0.71656481  0.06992148  0.88684417     0.01200
C758        C  0.70640828  0.06463180  0.85636310     0.04000
C759        C  0.70812382  0.08695433  0.83361052    -0.12000
C760        C  0.72096931  0.11432620  0.84094417     0.23300
C761        C  0.73068138  0.11975164  0.87161461    -0.12600
C762        C  0.72867900  0.09755763  0.89438557     0.04800
C763        C  0.72896404  0.13497219  0.81552483     0.27200
C764        C  0.75784185  0.13528999  0.80542485    -0.13300
C765        C  0.76610230  0.15419652  0.78128302     0.05300
C766        C  0.74511530  0.17120508  0.76517689    -0.09200
C767        C  0.71635690  0.17172228  0.77585545     0.06100
C768        C  0.70831784  0.15379618  0.80116480    -0.13600
Br769      Br  0.74858733  0.15695956  0.88193491    -0.05700
Br770      Br  0.69383272  0.02558394  0.84469187    -0.00100
Br771      Br  0.80644474  0.15661833  0.77066592     0.00400
Br772      Br  0.66910039  0.15467363  0.81591594    -0.04000
Br773      Br  0.74411164  0.10449622  0.93556851     0.00500
Br774      Br  0.69462018  0.07934408  0.79179918    -0.03300
Br775      Br  0.78602614  0.10851889  0.82366015    -0.04200
Br776      Br  0.68866391  0.19869122  0.75738795    -0.00200
C777        C  0.96188233  0.26819143  0.88810817     0.01200
C778        C  0.94228171  0.29258094  0.88713464     0.04000
C779        C  0.91998670  0.29346454  0.86473117    -0.12000
C780        C  0.91720596  0.27035808  0.84310108     0.23300
C781        C  0.93625859  0.24601272  0.84401574    -0.12600
C782        C  0.95800292  0.24436936  0.86692674     0.04800
C783        C  0.89372794  0.27104268  0.81966017     0.27200
C784        C  0.86825851  0.25520869  0.82497378    -0.13300
C785        C  0.84676474  0.25397458  0.80182056     0.05300
C786        C  0.85108423  0.26788080  0.77278935    -0.09200
C787        C  0.87645542  0.28433281  0.76785240     0.06100
C788        C  0.89758519  0.28610922  0.79145056    -0.13600
Br789      Br  0.93246341  0.21494172  0.81331431    -0.05700
Br790      Br  0.94366792  0.32394060  0.91778841    -0.00100
Br791      Br  0.81087801  0.23430734  0.81092094     0.00400
Br792      Br  0.93234280  0.30850838  0.78508669    -0.04000
Br793      Br  0.98142850  0.20871823  0.86864604     0.00500
Br794      Br  0.89274172  0.32612014  0.86366362    -0.03300
Br795      Br  0.86316623  0.23477665  0.86393718    -0.04200
Br796      Br  0.88354204  0.30297364  0.72838464    -0.00200
C797        C  0.20058227  0.24421778  0.78390882     0.01200
C798        C  0.19072099  0.27302158  0.79127478     0.04000
C799        C  0.17010427  0.27725490  0.81472848    -0.12000
C800        C  0.16016083  0.25285933  0.83179534     0.23300
C801        C  0.17249375  0.22465594  0.82697359    -0.12600
C802        C  0.19281211  0.22024255  0.80325598     0.04800
C803        C  0.13563411  0.25630892  0.85356885     0.27200
C804        C  0.14048791  0.26520503  0.88453353    -0.13300
C805        C  0.11720359  0.26715663  0.90535771     0.05300
C806        C  0.08893248  0.26027845  0.89523584    -0.09200
C807        C  0.08411194  0.25210924  0.86402229     0.06100
C808        C  0.10741107  0.24966697  0.84337726    -0.13600
Br809      Br  0.15992703  0.19166275  0.85174327    -0.05700
Br810      Br  0.20617453  0.30679227  0.76983761    -0.00100
Br811      Br  0.12421002  0.27874161  0.94786394     0.00400
Br812      Br  0.10083482  0.23679496  0.80111052    -0.04000
Br813      Br  0.20787891  0.18067941  0.79652229     0.00500
Br814      Br  0.15427021  0.31618332  0.82231624    -0.03300
Br815      Br  0.17922538  0.27406721  0.89831773    -0.04200
Br816      Br  0.04538310  0.24598146  0.84901614    -0.00200
C817        C  0.25944382  0.02650315  0.87937805     0.01200
C818        C  0.28278102  0.01923406  0.85988913     0.04000
C819        C  0.29127261  0.03914366  0.83687206    -0.12000
C820        C  0.27524301  0.06530876  0.83201285     0.23300
C821        C  0.25037848  0.07137288  0.84957675    -0.12600
C822        C  0.24253547  0.05210977  0.87349251     0.04800
C823        C  0.28509599  0.08733455  0.80947362     0.27200
C824        C  0.30562023  0.10848768  0.81868774    -0.13300
C825        C  0.31146715  0.13250335  0.79911972     0.05300
C826        C  0.29686872  0.13505189  0.77036252    -0.09200
C827        C  0.27890174  0.11200015  0.75987324     0.06100
C828        C  0.27230060  0.08858194  0.77978228    -0.13600
Br829      Br  0.22839544  0.10732440  0.84232257    -0.05700
Br830      Br  0.30286525  0.98179602  0.86443943    -0.00100
Br831      Br  0.33760941  0.16290761  0.81282657     0.00400
Br832      Br  0.24385295  0.05968557  0.76762733    -0.04000
Br833      Br  0.21019789  0.06263289  0.89952504     0.00500
Br834      Br  0.32608590  0.03184746  0.81368626    -0.03300
Br835      Br  0.32372812  0.10571078  0.85921636    -0.04200
Br836      Br  0.26346063  0.11245683  0.71816776    -0.00200
C837        C  0.28853663  0.78121658  0.83415946     0.01200
C838        C  0.30847785  0.80454613  0.83604004     0.04000
C839        C  0.30475586  0.82669730  0.85854270    -0.12000
C840        C  0.28132412  0.82525595  0.87906297     0.23300
C841        C  0.26391410  0.79994038  0.87989307    -0.12600
C842        C  0.26778745  0.77766148  0.85756517     0.04800
C843        C  0.27244097  0.85214447  0.89593802     0.27200
C844        C  0.28272170  0.85748962  0.92620663    -0.13300
C845        C  0.27570228  0.88424192  0.94108725     0.05300
C846        C  0.25909867  0.90595962  0.92522564    -0.09200
C847        C  0.24823088  0.90020085  0.89515542     0.06100
C848        C  0.25483945  0.87323794  0.88057067    -0.13600
Br849      Br  0.23295311  0.79738576  0.90940478    -0.05700
Br850      Br  0.33835540  0.80861810  0.80537880    -0.00100
Br851      Br  0.28841677  0.89078575  0.98338526     0.00400
Br852      Br  0.24124805  0.86579558  0.83869347    -0.04000
Br853      Br  0.24364531  0.74308203  0.85770011     0.00500
Br854      Br  0.32943117  0.86090835  0.85890303    -0.03300
Br855      Br  0.30758850  0.82872233  0.94635662    -0.04200
Br856      Br  0.22626976  0.93001946  0.87280650    -0.00200
C857        C  0.32142323  0.76442764  0.28463523     0.01200
C858        C  0.32751689  0.79335521  0.29499909     0.04000
C859        C  0.34681128  0.79769076  0.31996093    -0.12000
C860        C  0.35946221  0.77310312  0.33508049     0.23300
C861        C  0.35086493  0.74426329  0.32703467    -0.12600
C862        C  0.33198422  0.73982328  0.30172370     0.04800
C863        C  0.38373697  0.77738572  0.35722566     0.27200
C864        C  0.41230438  0.77311057  0.34690985    -0.13300
C865        C  0.43554022  0.77645468  0.36773887     0.05300
C866        C  0.43039599  0.78531595  0.39852863    -0.09200
C867        C  0.40195409  0.79057170  0.40865615     0.06100
C868        C  0.37855415  0.78569494  0.38825842    -0.13600
Br869      Br  0.36597804  0.71083016  0.35008776    -0.05700
Br870      Br  0.30867883  0.82700876  0.27563610    -0.00100
Br871      Br  0.47451185  0.76880391  0.35418475     0.00400
Br872      Br  0.33946842  0.78900400  0.40304183    -0.04000
Br873      Br  0.32242726  0.69982737  0.28967668     0.00500
Br874      Br  0.35676757  0.83727619  0.33272414    -0.03300
Br875      Br  0.41963010  0.76220967  0.30429244    -0.04200
Br876      Br  0.39505897  0.80396420  0.45052322    -0.00200
C877        C  0.22553636  0.66041609  0.27649291     0.01200
C878        C  0.23071547  0.63016719  0.27133833     0.04000
C879        C  0.22652216  0.60995819  0.29560707    -0.12000
C880        C  0.21703453  0.62023841  0.32477142     0.23300
C881        C  0.21096278  0.65047215  0.32947344    -0.12600
C882        C  0.21506402  0.67056095  0.30523028     0.04800
C883        C  0.21478990  0.59960386  0.35107514     0.27200
C884        C  0.18960607  0.58302589  0.35512484    -0.13300
C885        C  0.18804196  0.56247156  0.37957049     0.05300
C886        C  0.21149487  0.55947035  0.40090959    -0.09200
C887        C  0.23502260  0.57927569  0.39877742     0.06100
C888        C  0.23736645  0.59797637  0.37299347    -0.13600
Br889      Br  0.19776596  0.66434507  0.36940557    -0.05700
Br890      Br  0.24327918  0.61679010  0.23104275    -0.00100
Br891      Br  0.15337987  0.53929830  0.38291643     0.00400
Br892      Br  0.27155785  0.62162216  0.36751212    -0.04000
Br893      Br  0.20641219  0.71206253  0.31135621     0.00500
Br894      Br  0.23436430  0.56842379  0.28930354    -0.03300
Br895      Br  0.15720685  0.58906109  0.32713990    -0.04200
Br896      Br  0.26247868  0.58405329  0.43257223    -0.00200
C897        C  0.33702945  0.68815924  0.18171150     0.01200
C898        C  0.36469307  0.68905053  0.19550494     0.04000
C899        C  0.38463820  0.66618885  0.18972595    -0.12000
C900        C  0.37714123  0.64288798  0.16941320     0.23300
C901        C  0.35034965  0.64346325  0.15360729    -0.12600
C902        C  0.32987961  0.66555394  0.16055359     0.04800
C903        C  0.39667315  0.61701106  0.16606331     0.27200
C904        C  0.42228993  0.61935668  0.14890509    -0.13300
C905        C  0.44232158  0.59577005  0.14889984     0.05300
C906        C  0.43585299  0.56923030  0.16454097    -0.09200
C907        C  0.40882232  0.56578979  0.17851902     0.06100
C908        C  0.38979448  0.59004267  0.18062252    -0.13600
Br909      Br  0.34221402  0.61442700  0.12189078    -0.05700
Br910      Br  0.37474655  0.72091179  0.22351113    -0.00100
Br911      Br  0.47902152  0.60051710  0.12875132     0.00400
Br912      Br  0.35513942  0.58666699  0.20488737    -0.04000
Br913      Br  0.29217823  0.66497775  0.14106345     0.00500
Br914      Br  0.42203585  0.66679827  0.20994238    -0.03300
Br915      Br  0.42999578  0.65515615  0.12608170    -0.04200
Br916      Br  0.39741040  0.52729143  0.19299121    -0.00200
C917        C  0.26575510  0.85397607  0.16634374     0.01200
C918        C  0.24460657  0.87571541  0.17316050     0.04000
C919        C  0.24093242  0.90008543  0.15341293    -0.12000
C920        C  0.25801709  0.90224577  0.12685091     0.23300
C921        C  0.28083870  0.88220162  0.12151618    -0.12600
C922        C  0.28463794  0.85783224  0.14117721     0.04800
C923        C  0.24927113  0.92217000  0.10173000     0.27200
C924        C  0.23048104  0.91142929  0.07849942    -0.13300
C925        C  0.22763981  0.92672847  0.05041478     0.05300
C926        C  0.24337412  0.95292052  0.04607487    -0.09200
C927        C  0.25967711  0.96521220  0.07071752     0.06100
C928        C  0.26290493  0.94953020  0.09853155    -0.13600
Br929      Br  0.30503683  0.88683907  0.08547608    -0.05700
Br930      Br  0.21957384  0.87150285  0.20835727    -0.00100
Br931      Br  0.20498331  0.90966658  0.01704044     0.00400
Br932      Br  0.28791921  0.96388767  0.13123584    -0.04000
Br933      Br  0.31292314  0.82783659  0.13066561     0.00500
Br934      Br  0.21136118  0.92953331  0.16105724    -0.03300
Br935      Br  0.21097406  0.87418232  0.08408994    -0.04200
Br936      Br  0.27824566  0.00305917  0.06627460    -0.00200
C937        C  0.18022503  0.73695416  0.14336675     0.01200
C938        C  0.16448713  0.75900150  0.12720775     0.04000
C939        C  0.14608186  0.75083360  0.10266885    -0.12000
C940        C  0.14560580  0.72117521  0.09242944     0.23300
C941        C  0.16426514  0.69998252  0.10592676    -0.12600
C942        C  0.18096499  0.70764402  0.13202441     0.04800
C943        C  0.12344772  0.71193447  0.06968593     0.27200
C944        C  0.09855641  0.69755127  0.08018940    -0.13300
C945        C  0.07546191  0.69238876  0.05953848     0.05300
C946        C  0.07676392  0.70258851  0.02858431    -0.09200
C947        C  0.10200284  0.71700226  0.01825292     0.06100
C948        C  0.12571879  0.72037212  0.03844814    -0.13600
Br949      Br  0.16536058  0.66011432  0.08977453    -0.05700
Br950      Br  0.16677565  0.80008883  0.13940290    -0.00100
Br951      Br  0.04098439  0.67472098  0.07520838     0.00400
Br952      Br  0.16116724  0.73754858  0.02390750    -0.04000
Br953      Br  0.20455217  0.67788266  0.15243282     0.00500
Br954      Br  0.11950168  0.77969864  0.08519581    -0.03300
Br955      Br  0.09546850  0.68676323  0.12354973    -0.04200
Br956      Br  0.10400890  0.73429024  0.97725090    -0.00200
C957        C  0.76813087  0.56718546  0.38833511     0.01200
C958        C  0.77624187  0.59660358  0.39502358     0.04000
C959        C  0.77459270  0.61870764  0.37173814    -0.12000
C960        C  0.76466648  0.61173092  0.34147906     0.23300
C961        C  0.75659510  0.58237809  0.33476617    -0.12600
C962        C  0.75842541  0.56024598  0.35795294     0.04800
C963        C  0.76212105  0.63517638  0.31678601     0.27200
C964        C  0.73554831  0.64989074  0.31152245    -0.13300
C965        C  0.73245674  0.67079066  0.28725977     0.05300
C966        C  0.75628367  0.67788484  0.26816196    -0.09200
C967        C  0.78317436  0.66366206  0.27416496     0.06100
C968        C  0.78572707  0.64174832  0.29756030    -0.13600
Br969      Br  0.74326552  0.57264244  0.29338956    -0.05700
Br970      Br  0.78883661  0.60678089  0.43651850    -0.00100
Br971      Br  0.69457648  0.68773417  0.27929187     0.00400
Br972      Br  0.82100227  0.61905719  0.30196778    -0.04000
Br973      Br  0.74901561  0.52009390  0.34741779     0.00500
Br974      Br  0.78587463  0.65868071  0.38122014    -0.03300
Br975      Br  0.70272100  0.63983885  0.33658646    -0.04200
Br976      Br  0.81712967  0.67511104  0.25163402    -0.00200
C977        C  0.66376565  0.78972542  0.28028257     0.01200
C978        C  0.66763879  0.80746756  0.30703115     0.04000
C979        C  0.64573767  0.80917865  0.32924719    -0.12000
C980        C  0.62074389  0.79205949  0.32542963     0.23300
C981        C  0.61691744  0.77428623  0.29888960    -0.12600
C982        C  0.63799635  0.77390963  0.27580332     0.04800
C983        C  0.59872798  0.79209555  0.34973839     0.27200
C984        C  0.60329377  0.77519975  0.37680159    -0.13300
C985        C  0.58181153  0.77429616  0.39948546     0.05300
C986        C  0.55582125  0.79037640  0.39499451    -0.09200
C987        C  0.55212931  0.80873553  0.36872924     0.06100
C988        C  0.57331810  0.80899430  0.34573761    -0.13600
Br989      Br  0.58334591  0.74949902  0.29487315    -0.05700
Br990      Br  0.70363775  0.82759248  0.31474737    -0.00100
Br991      Br  0.58917708  0.75295577  0.43766849     0.00400
Br992      Br  0.56747471  0.83218008  0.30849731    -0.04000
Br993      Br  0.63094516  0.75262288  0.23763160     0.00500
Br994      Br  0.65023652  0.83399016  0.36557957    -0.03300
Br995      Br  0.63908335  0.75343334  0.38266874    -0.04200
Br996      Br  0.51837032  0.83385356  0.36398057    -0.00200
C997        C  0.55374980  0.58002174  0.16726836     0.01200
C998        C  0.55495231  0.60217720  0.19084224     0.04000
C999        C  0.57643356  0.62402101  0.19023667    -0.12000
C1000       C  0.59622277  0.62485519  0.16574134     0.23300
C1001       C  0.59312888  0.60535087  0.14049210    -0.12600
C1002       C  0.57219242  0.58287557  0.14113645     0.04800
C1003       C  0.62182474  0.64436515  0.16816374     0.27200
C1004       C  0.61974927  0.67468577  0.16074596    -0.13300
C1005       C  0.64366762  0.69330751  0.16558346     0.05300
C1006       C  0.66953959  0.68174738  0.17854220    -0.09200
C1007       C  0.67180165  0.65109844  0.18493079     0.06100
C1008       C  0.64809474  0.63251369  0.17954443    -0.13600
Br1009     Br  0.61837728  0.60936263  0.10529645    -0.05700
Br1010     Br  0.52673120  0.60450705  0.22367768    -0.00100
Br1011     Br  0.64154775  0.73406405  0.15246645     0.00400
Br1012     Br  0.65137455  0.59064053  0.18820797    -0.04000
Br1013     Br  0.57039298  0.55618120  0.10600991     0.00500
Br1014     Br  0.57939943  0.65276050  0.22345377    -0.03300
Br1015     Br  0.58404203  0.69046234  0.14397116    -0.04200
Br1016     Br  0.70700566  0.63432334  0.20224950    -0.00200
C1017       C  0.95129948  0.71585079  0.03818186     0.01200
C1018       C  0.94536181  0.69385918  0.06079354     0.04000
C1019       C  0.92233472  0.69787042  0.08132467    -0.12000
C1020       C  0.90485377  0.72323758  0.07898789     0.23300
C1021       C  0.91107469  0.74564520  0.05767804    -0.12600
C1022       C  0.93447668  0.74235725  0.03756390     0.04800
C1023       C  0.87997021  0.72679086  0.09941406     0.27200
C1024       C  0.85303343  0.71534390  0.09031840    -0.13300
C1025       C  0.82897714  0.72009079  0.10923137     0.05300
C1026       C  0.83221005  0.73571748  0.13735891    -0.09200
C1027       C  0.85901346  0.74782403  0.14595174     0.06100
C1028       C  0.88303768  0.74303338  0.12708209    -0.13600
Br1029     Br  0.88691467  0.78081170  0.05604984    -0.05700
Br1030     Br  0.96837904  0.65819173  0.06506588    -0.00100
Br1031     Br  0.79128613  0.70715685  0.09563444     0.00400
Br1032     Br  0.92025651  0.75861681  0.13886322    -0.04000
Br1033     Br  0.94160703  0.77443367  0.00889801     0.00500
Br1034     Br  0.91448213  0.66884099  0.11306689    -0.03300
Br1035     Br  0.84926884  0.69349966  0.05190457    -0.04200
Br1036     Br  0.86288872  0.77108992  0.18333246    -0.00200
C1037       C  0.73341310  0.84636456  0.14944350     0.01200
C1038       C  0.73705415  0.87735355  0.15284736     0.04000
C1039       C  0.73283633  0.89620781  0.12719196    -0.12000
C1040       C  0.72481491  0.88441653  0.09814112     0.23300
C1041       C  0.72015782  0.85386465  0.09485128    -0.12600
C1042       C  0.72464807  0.83480842  0.12029515     0.04800
C1043       C  0.72258279  0.90405469  0.07066083     0.27200
C1044       C  0.69746539  0.92099623  0.06540631    -0.13300
C1045       C  0.69602362  0.94110848  0.04046542     0.05300
C1046       C  0.71946754  0.94334281  0.01940336    -0.09200
C1047       C  0.74402582  0.92458808  0.02397381     0.06100
C1048       C  0.74581178  0.90581568  0.05002612    -0.13600
Br1049     Br  0.70788826  0.83830138  0.05509571    -0.05700
Br1050     Br  0.74989158  0.89443331  0.19180536    -0.00100
Br1051     Br  0.66196313  0.96608604  0.03729516     0.00400
Br1052     Br  0.78025237  0.88230419  0.05796068    -0.04000
Br1053     Br  0.71806413  0.79303273  0.11480553     0.00500
Br1054     Br  0.73894572  0.93829207  0.13135187    -0.03300
Br1055     Br  0.66503638  0.91646495  0.09290757    -0.04200
Br1056     Br  0.77492246  0.92236564  0.99415679    -0.00200
C1057       C  0.56514591  0.21197435  0.39048407     0.01200
C1058       C  0.56348085  0.19722644  0.36157883     0.04000
C1059       C  0.58534591  0.20102253  0.33941853    -0.12000
C1060       C  0.60896280  0.21956106  0.34598577     0.23300
C1061       C  0.61086499  0.23387980  0.37509192    -0.12600
C1062       C  0.58877337  0.23052990  0.39704483     0.04800
C1063       C  0.63137238  0.22460840  0.32199852     0.27200
C1064       C  0.65772551  0.20878244  0.32318663    -0.13300
C1065       C  0.67904505  0.21385316  0.30076409     0.05300
C1066       C  0.67407431  0.23458930  0.27673778    -0.09200
C1067       C  0.64783182  0.25076455  0.27576793     0.06100
C1068       C  0.62631013  0.24529150  0.29795432    -0.13600
Br1069     Br  0.64392739  0.25788033  0.38506865    -0.05700
Br1070     Br  0.53023313  0.17354000  0.35130295    -0.00100
Br1071     Br  0.71583798  0.19349248  0.30409431     0.00400
Br1072     Br  0.58929470  0.26513047  0.29466472    -0.04000
Br1073     Br  0.59103848  0.25126821  0.43630554     0.00500
Br1074     Br  0.58297956  0.18101956  0.29983001    -0.03300
Br1075     Br  0.66425674  0.17945185  0.35507379    -0.04200
Br1076     Br  0.64089016  0.27991546  0.24373689    -0.00200
C1077       C  0.77858988  0.44093294  0.38687262     0.01200
C1078       C  0.80480688  0.42573568  0.37958350     0.04000
C1079       C  0.80611312  0.40630427  0.35386542    -0.12000
C1080       C  0.78103397  0.39974467  0.33665101     0.23300
C1081       C  0.75460434  0.41301822  0.34488895    -0.12600
C1082       C  0.75334798  0.43410444  0.36905661     0.04800
C1083       C  0.78197352  0.37854434  0.31001533     0.27200
C1084       C  0.78413840  0.38923116  0.27944086    -0.13300
C1085       C  0.77941291  0.37018483  0.25395506     0.05300
C1086       C  0.77530521  0.33944264  0.25873967    -0.09200
C1087       C  0.77540987  0.32847037  0.28960811     0.06100
C1088       C  0.77786012  0.34809885  0.31503052    -0.13600
Br1089     Br  0.71977214  0.40168705  0.32293151    -0.05700
Br1090     Br  0.83897066  0.42889907  0.40556591    -0.00100
Br1091     Br  0.77441606  0.38763406  0.21323314     0.00400
Br1092     Br  0.77421392  0.33368664  0.35698764    -0.04000
Br1093     Br  0.71641362  0.45339977  0.37595798     0.00500
Br1094     Br  0.84238854  0.38848735  0.34181992    -0.03300
Br1095     Br  0.79280440  0.43039676  0.27267649    -0.04200
Br1096     Br  0.77202864  0.28663699  0.29767666    -0.00200
C1097       C  0.56693747  0.45468921  0.18866760     0.01200
C1098       C  0.56142918  0.42491009  0.19568201     0.04000
C1099       C  0.58408100  0.40407182  0.19544421    -0.12000
C1100       C  0.61247736  0.41325567  0.18951769     0.23300
C1101       C  0.61817993  0.44333224  0.18365560    -0.12600
C1102       C  0.59533560  0.46407612  0.18318590     0.04800
C1103       C  0.63612745  0.39103550  0.18901080     0.27200
C1104       C  0.64963383  0.38212358  0.21697851    -0.13300
C1105       C  0.67199873  0.36087453  0.21643030     0.05300
C1106       C  0.67982948  0.34741277  0.18811141    -0.09200
C1107       C  0.66546847  0.35545991  0.16037222     0.06100
C1108       C  0.64411701  0.37777164  0.16069418    -0.13600
Br1109     Br  0.65705004  0.45579257  0.17521433    -0.05700
Br1110     Br  0.52276459  0.41273713  0.20547055    -0.00100
Br1111     Br  0.69245458  0.35092309  0.25431055     0.00400
Br1112     Br  0.62547068  0.39003003  0.12248433    -0.04000
Br1113     Br  0.60275888  0.50534466  0.17535713     0.00500
Br1114     Br  0.57611152  0.36268755  0.20174280    -0.03300
Br1115     Br  0.63698759  0.39863894  0.25599788    -0.04200
Br1116     Br  0.67409729  0.33483449  0.12228778    -0.00200
C1117       C  0.71711278  0.06538603  0.02152415     0.01200
C1118       C  0.73252042  0.05755961  0.04882799     0.04000
C1119       C  0.73577259  0.07817474  0.07314316    -0.12000
C1120       C  0.72326044  0.10661294  0.07057388     0.23300
C1121       C  0.70622114  0.11377282  0.04422843    -0.12600
C1122       C  0.70300224  0.09316565  0.01979804     0.04800
C1123       C  0.72866270  0.12928250  0.09510594     0.27200
C1124       C  0.70841006  0.13419536  0.11877177    -0.13300
C1125       C  0.71259730  0.15706779  0.14065841     0.05300
C1126       C  0.73838495  0.17375379  0.14065961    -0.09200
C1127       C  0.75941763  0.16757307  0.11762385     0.06100
C1128       C  0.75416549  0.14596992  0.09462504    -0.13600
Br1129     Br  0.68778379  0.15214479  0.04150963    -0.05700
Br1130     Br  0.74776107  0.01788004  0.05374463    -0.00100
Br1131     Br  0.68210085  0.16599299  0.16960948     0.00400
Br1132     Br  0.78256483  0.13809173  0.06297020    -0.04000
Br1133     Br  0.67981637  0.10337831  0.98382781     0.00500
Br1134     Br  0.75751757  0.06761887  0.11001833    -0.03300
Br1135     Br  0.67575972  0.10822163  0.12212062    -0.04200
Br1136     Br  0.79681375  0.18629452  0.11846766    -0.00200
C1137       C  0.95407558  0.27194005  0.01296446     0.01200
C1138       C  0.95046560  0.29539179  0.03461767     0.04000
C1139       C  0.92510398  0.29766570  0.05233556    -0.12000
C1140       C  0.90360989  0.27603838  0.04975394     0.23300
C1141       C  0.90612237  0.25367701  0.02715309    -0.12600
C1142       C  0.93123248  0.25141532  0.00892937     0.04800
C1143       C  0.87930674  0.27604212  0.07216888     0.27200
C1144       C  0.88169494  0.25913455  0.09958559    -0.13300
C1145       C  0.85965683  0.26025206  0.12188415     0.05300
C1146       C  0.83500404  0.27839883  0.11703147    -0.09200
C1147       C  0.83298381  0.29585786  0.08982131     0.06100
C1148       C  0.85495732  0.29444621  0.06737701    -0.13600
Br1149     Br  0.87415992  0.22729519  0.02009332    -0.05700
Br1150     Br  0.98045760  0.32388306  0.04209354    -0.00100
Br1151     Br  0.86458435  0.23855240  0.16012694     0.00400
Br1152     Br  0.85219694  0.31812567  0.03017833    -0.04000
Br1153     Br  0.93297829  0.22072269  0.97759061     0.00500
Br1154     Br  0.91901592  0.33110813  0.07963603    -0.03300
Br1155     Br  0.91584952  0.23521964  0.10709039    -0.04200
Br1156     Br  0.80001555  0.32151237  0.08278416    -0.00200
C1157       C  0.21886376  0.42907773  0.40927372     0.01200
C1158       C  0.20482446  0.43026362  0.38008989     0.04000
C1159       C  0.20925747  0.40752595  0.35836906    -0.12000
C1160       C  0.22774662  0.38360589  0.36571991     0.23300
C1161       C  0.24083204  0.38161724  0.39525308    -0.12600
C1162       C  0.23594127  0.40407347  0.41728868     0.04800
C1163       C  0.23379411  0.36110733  0.34176328     0.27200
C1164       C  0.21620131  0.33601936  0.33921527    -0.13300
C1165       C  0.21943998  0.31677055  0.31384267     0.05300
C1166       C  0.24020351  0.32287807  0.29087297    -0.09200
C1167       C  0.25850768  0.34746948  0.29414195     0.06100
C1168       C  0.25556083  0.36626622  0.31988084    -0.13600
Br1169     Br  0.26607666  0.34855818  0.40485045    -0.05700
Br1170     Br  0.18054385  0.46354386  0.36903353    -0.00100
Br1171     Br  0.19597630  0.28162629  0.31144053     0.00400
Br1172     Br  0.28119174  0.39932455  0.32519942    -0.04000
Br1173     Br  0.25122596  0.39963121  0.45892034     0.00500
Br1174     Br  0.19089296  0.40954401  0.31791499    -0.03300
Br1175     Br  0.18774347  0.32822505  0.37060317    -0.04200
Br1176     Br  0.28628202  0.35686485  0.26244023    -0.00200
C1177       C  0.33856060  0.21588473  0.26076915     0.01200
C1178       C  0.36532203  0.20178957  0.25355346     0.04000
C1179       C  0.38567378  0.19586028  0.27733326    -0.12000
C1180       C  0.38039028  0.20551099  0.30781882     0.23300
C1181       C  0.35344018  0.21788598  0.31543697    -0.12600
C1182       C  0.33206026  0.22152663  0.29236968     0.04800
C1183       C  0.40334796  0.20342811  0.33189274     0.27200
C1184       C  0.40217247  0.18134766  0.35485985    -0.13300
C1185       C  0.42221031  0.18131227  0.37958859     0.05300
C1186       C  0.44450753  0.20244433  0.38046121    -0.09200
C1187       C  0.44639071  0.22374638  0.35657727     0.06100
C1188       C  0.42530903  0.22477480  0.33291869    -0.13600
Br1189     Br  0.34633610  0.23098507  0.35749472    -0.05700
Br1190     Br  0.37593369  0.19170827  0.21144408    -0.00100
Br1191     Br  0.41728489  0.15384592  0.41343516     0.00400
Br1192     Br  0.42567875  0.25632365  0.30273261    -0.04000
Br1193     Br  0.29351833  0.23222318  0.30512994     0.00500
Br1194     Br  0.42129461  0.17503619  0.26839112    -0.03300
Br1195     Br  0.37228524  0.15187081  0.35292337    -0.04200
Br1196     Br  0.47835052  0.25094341  0.35527934    -0.00200
C1197       C  0.34331236  0.32336403  0.19630108     0.01200
C1198       C  0.33671992  0.34821809  0.17771370     0.04000
C1199       C  0.35463688  0.37319176  0.17872544    -0.12000
C1200       C  0.38074603  0.37226648  0.19585691     0.23300
C1201       C  0.38792221  0.34688509  0.21344768    -0.12600
C1202       C  0.36883910  0.32286182  0.21442455     0.04800
C1203       C  0.40203300  0.39658258  0.19303077     0.27200
C1204       C  0.42147617  0.39633580  0.16816426    -0.13300
C1205       C  0.44291186  0.41819473  0.16593185     0.05300
C1206       C  0.44462782  0.44138568  0.18828337    -0.09200
C1207       C  0.42596881  0.44017439  0.21447621     0.06100
C1208       C  0.40442728  0.41832791  0.21624689    -0.13600
Br1209     Br  0.42442712  0.34468740  0.23534518    -0.05700
Br1210     Br  0.30506990  0.34665781  0.14822212    -0.00100
Br1211     Br  0.47163263  0.41342207  0.13398169     0.00400
Br1212     Br  0.37778648  0.41794598  0.25056152    -0.04000
Br1213     Br  0.37752736  0.28946632  0.24093102     0.00500
Br1214     Br  0.34349084  0.40861841  0.15662629    -0.03300
Br1215     Br  0.41884137  0.36515669  0.13744178    -0.04200
Br1216     Br  0.42973384  0.46686733  0.24944268    -0.00200
C1217       C  0.08191417  0.26224049  0.02451496     0.01200
C1218       C  0.10163609  0.23795385  0.02557684     0.04000
C1219       C  0.12195816  0.23571923  0.04991935    -0.12000
C1220       C  0.12255109  0.25723825  0.07344055     0.23300
C1221       C  0.10381497  0.28182175  0.07208279    -0.12600
C1222       C  0.08369600  0.28457599  0.04761785     0.04800
C1223       C  0.14294385  0.25427439  0.09982394     0.27200
C1224       C  0.13428015  0.23987511  0.12708637    -0.13300
C1225       C  0.15321288  0.23829995  0.15271989     0.05300
C1226       C  0.18009950  0.25274746  0.15180605    -0.09200
C1227       C  0.18839096  0.26771725  0.12465370     0.06100
C1228       C  0.17036776  0.26723402  0.09819590    -0.13600
Br1229     Br  0.10591855  0.31174329  0.10414873    -0.05700
Br1230     Br  0.10250130  0.20802692  0.99331547    -0.00100
Br1231     Br  0.14262111  0.21526543  0.18844944     0.00400
Br1232     Br  0.18338763  0.28312178  0.05922301    -0.04000
Br1233     Br  0.05848168  0.31885032  0.04722239     0.00500
Br1234     Br  0.14963111  0.20353898  0.05095686    -0.03300
Br1235     Br  0.09659151  0.22203439  0.12895121    -0.04200
Br1236     Br  0.22376596  0.28980777  0.12398677    -0.00200
C1237       C  0.24529513  0.06541147  0.00376984     0.01200
C1238       C  0.26496081  0.08805661  0.99680107     0.04000
C1239       C  0.27084427  0.11000026  0.01887163    -0.12000
C1240       C  0.25669383  0.10948810  0.04753208     0.23300
C1241       C  0.23508380  0.08867724  0.05348263    -0.12600
C1242       C  0.22934835  0.06646294  0.03158096     0.04800
C1243       C  0.26465047  0.13074600  0.07169326     0.27200
C1244       C  0.28614495  0.12334090  0.09382710    -0.13300
C1245       C  0.29130278  0.14240612  0.11894513     0.05300
C1246       C  0.27635719  0.16952390  0.12035921    -0.09200
C1247       C  0.25675679  0.17789815  0.09671463     0.06100
C1248       C  0.25015027  0.15807167  0.07290064    -0.13600
Br1249     Br  0.21466006  0.08990423  0.09246352    -0.05700
Br1250     Br  0.28453819  0.08848021  0.95740100    -0.00100
Br1251     Br  0.31768702  0.13110144  0.15188324     0.00400
Br1252     Br  0.22116588  0.16804025  0.04204706    -0.04000
Br1253     Br  0.20189810  0.03607463  0.04150825     0.00500
Br1254     Br  0.29934806  0.13988332  0.01083564    -0.03300
Br1255     Br  0.30864308  0.08750760  0.08928999    -0.04200
Br1256     Br  0.23980826  0.21691957  0.09620016    -0.00200
C1257       C  0.06307696  0.93810452  0.25276254     0.01200
C1258       C  0.08901856  0.93761045  0.23570061     0.04000
C1259       C  0.10844441  0.91370952  0.23889164    -0.12000
C1260       C  0.10204211  0.89008391  0.25888674     0.23300
C1261       C  0.07691209  0.89103226  0.27696235    -0.12600
C1262       C  0.05731769  0.91487628  0.27382061     0.04800
C1263       C  0.12026260  0.86302392  0.25798226     0.27200
C1264       C  0.11219135  0.83962418  0.23812769    -0.13300
C1265       C  0.13153215  0.81615759  0.23267410     0.05300
C1266       C  0.15901042  0.81618126  0.24696241    -0.09200
C1267       C  0.16648423  0.83862170  0.26822008     0.06100
C1268       C  0.14690605  0.86188018  0.27405580    -0.13600
Br1269     Br  0.06916590  0.85905883  0.30530447    -0.05700
Br1270     Br  0.09852861  0.96971268  0.20810854    -0.00100
Br1271     Br  0.12100073  0.78499125  0.20408997     0.00400
Br1272     Br  0.15653757  0.89234334  0.30365482    -0.04000
Br1273     Br  0.02164462  0.91408301  0.29669142     0.00500
Br1274     Br  0.14371119  0.91284979  0.21525202    -0.03300
Br1275     Br  0.07496469  0.84026658  0.21752666    -0.04200
Br1276     Br  0.20350856  0.83731000  0.28927663    -0.00200
C1277       C  0.94253381  0.94309833  0.24183173     0.01200
C1278       C  0.91467555  0.94944082  0.25332130     0.04000
C1279       C  0.89315851  0.92763028  0.25275745    -0.12000
C1280       C  0.89920682  0.89939264  0.24044114     0.23300
C1281       C  0.92707539  0.89273916  0.22946229    -0.12600
C1282       C  0.94877076  0.91440050  0.23043875     0.04800
C1283       C  0.87548053  0.87774341  0.23671496     0.27200
C1284       C  0.86673495  0.86024229  0.26199345    -0.13300
C1285       C  0.84181663  0.84274460  0.25933168     0.05300
C1286       C  0.82695986  0.84097956  0.23069112    -0.09200
C1287       C  0.83686410  0.85695455  0.20482960     0.06100
C1288       C  0.86047504  0.87603886  0.20813476    -0.13600
Br1289     Br  0.93507799  0.85413152  0.21218227    -0.05700
Br1290     Br  0.90499843  0.98852397  0.26774382    -0.00100
Br1291     Br  0.82797498  0.82114873  0.29475947     0.00400
Br1292     Br  0.87169316  0.90071829  0.17380864    -0.04000
Br1293     Br  0.98722493  0.90429575  0.21686275     0.00500
Br1294     Br  0.85477078  0.93674106  0.26744247    -0.03300
Br1295     Br  0.88915269  0.85999556  0.29995667    -0.04200
Br1296     Br  0.81749574  0.85357376  0.16504508    -0.00200
C1297       C  0.83147684  0.17607524  0.21689410     0.01200
C1298       C  0.85835423  0.18600686  0.22825961     0.04000
C1299       C  0.88237719  0.16664059  0.22871340    -0.12000
C1300       C  0.87941245  0.13724132  0.21822619     0.23300
C1301       C  0.85255487  0.12731987  0.20700043    -0.12600
C1302       C  0.82863781  0.14664628  0.20632180     0.04800
C1303       C  0.90349329  0.11564561  0.22194915     0.27200
C1304       C  0.92197297  0.10922091  0.19710301    -0.13300
C1305       C  0.94332851  0.08684784  0.20008290     0.05300
C1306       C  0.94641969  0.07068385  0.22843065    -0.09200
C1307       C  0.92760269  0.07789567  0.25346593     0.06100
C1308       C  0.90623257  0.09995071  0.24990686    -0.13600
Br1309     Br  0.84849410  0.08678383  0.19346187    -0.05700
Br1310     Br  0.86167637  0.22536001  0.24528736    -0.00100
Br1311     Br  0.96799312  0.07974135  0.16479451     0.00400
Br1312     Br  0.87935275  0.10810069  0.28310158    -0.04000
Br1313     Br  0.79200844  0.13250809  0.19083616     0.00500
Br1314     Br  0.91916158  0.17991081  0.24450891    -0.03300
Br1315     Br  0.91709728  0.13092906  0.15867534    -0.04200
Br1316     Br  0.92910458  0.05775692  0.29315864    -0.00200
C1317       C  0.18738856  0.16386887  0.23601925     0.01200
C1318       C  0.18222877  0.14381002  0.21135689     0.04000
C1319       C  0.16104540  0.12197512  0.21440928    -0.12000
C1320       C  0.14345326  0.12148480  0.24089208     0.23300
C1321       C  0.14883812  0.14102847  0.26571764    -0.12600
C1322       C  0.17151224  0.16137070  0.26382246     0.04800
C1323       C  0.11831169  0.10148152  0.24165991     0.27200
C1324       C  0.09276314  0.10932132  0.22553666    -0.13300
C1325       C  0.06938797  0.08964643  0.22456178     0.05300
C1326       C  0.07127134  0.06225047  0.24020536    -0.09200
C1327       C  0.09650851  0.05508246  0.25747301     0.06100
C1328       C  0.12009495  0.07450442  0.25783910    -0.13600
Br1329     Br  0.12406618  0.14102543  0.30153775    -0.05700
Br1330     Br  0.20125668  0.14794005  0.17181940    -0.00100
Br1331     Br  0.03425689  0.10125908  0.20347099     0.00400
Br1332     Br  0.15505844  0.06430653  0.28032107    -0.04000
Br1333     Br  0.18072744  0.18564764  0.29956873     0.00500
Br1334     Br  0.15516394  0.09327950  0.18173807    -0.03300
Br1335     Br  0.08978421  0.14745901  0.20542386    -0.04200
Br1336     Br  0.09912753  0.01851207  0.28046878    -0.00200
loop_ 
_geom_bond_atom_site_label_1 
_geom_bond_atom_site_label_2 
_geom_bond_distance 
_geom_bond_site_symmetry_2 
_ccdc_geom_bond_type 
O1           Ni9   1.919   1_565  S
O1           C11   1.282       .  A
O2           Ni9   1.925   1_655  S
O2           C12   1.281       .  A
O3           Ni9   1.931       .  S
O3           C13   1.284       .  A
O4           Ni9   1.924   1_665  S
O4           C14   1.282       .  A
O5          Ni10   1.926   1_665  S
O5           C14   1.282       .  A
O6          Ni10   1.913       .  S
O6           C13   1.279       .  A
O7          Ni10   1.912   1_655  S
O7           C12   1.279       .  A
O8          Ni10   1.913   1_565  S
O8           C11   1.280       .  A
Ni9         Ni10   2.383       .  S
C11        C1257   1.481       .  S
C12        C1306   1.504       .  S
C13        C1326   1.481       .  S
C14        C1277   1.486       .  S
O15         Ni21   1.920       .  S
O15          C36   1.269       .  A
O16         Ni39   1.879       .  S
O16          C25   1.261       .  A
O17         Ni21   1.910       .  S
O17         Ni39   1.877       .  S
O17         Ni33   1.889       .  S
O17          H40   0.967       .  S
C18          O35   1.264       .  A
C18          O27   1.270       .  A
C18        C1197   1.475       .  S
O19         Ni38   1.912       .  S
O19          C25   1.266       .  A
O20         Ni38   1.907       .  S
O20          C22   1.270       .  A
Ni21         O24   1.919       .  S
Ni21         O26   1.909       .  S
C22          O32   1.281       .  A
C22        C1177   1.494       .  S
O23         Ni39   1.912       .  S
O23          C29   1.276       .  A
O24          C29   1.276       .  A
C25        C1246   1.451       .  S
O26          C28   1.266       .  A
O27         Ni38   1.935       .  S
C28          O34   1.267       .  A
C28        C1226   1.472       .  S
C29        C1317   1.478       .  S
H30          O31   0.965       .  S
O31         Ni39   1.937       .  S
O31         Ni33   1.904       .  S
O31         Ni38   1.918       .  S
O32         Ni33   1.954       .  S
Ni33         O37   1.891       .  S
Ni33         O35   1.900       .  S
O34         Ni39   1.923       .  S
C36          O37   1.264       .  A
C36        C1166   1.467       .  S
O41         Ni47   1.931       .  S
O41          C62   1.272       .  A
O42         Ni65   1.900       .  S
O42          C51   1.266       .  A
O43         Ni47   1.914       .  S
O43         Ni65   1.898       .  S
O43         Ni59   1.909       .  S
O43          H66   0.966       .  S
C44          O61   1.270       .  A
C44          O53   1.276       .  A
C44        C1106   1.471       .  S
O45         Ni64   1.944       .  S
O45          C51   1.275       .  A
O46         Ni64   1.917       .  S
O46          C48   1.272       .  A
Ni47         O50   1.922       .  S
Ni47         O52   1.913       .  S
C48          O58   1.273       .  A
C48        C1086   1.495       .  S
O49         Ni65   1.918       .  S
O49          C55   1.275       .  A
O50          C55   1.276       .  A
C51        C1146   1.486       .  S
O52          C54   1.270       .  A
O53         Ni64   1.937       .  S
C54          O60   1.272       .  A
C54        C1126   1.496       .  S
C55        C1297   1.474       .  S
H56          O57   0.967       .  S
O57         Ni65   1.914       .  S
O57         Ni59   1.914       .  S
O57         Ni64   1.919       .  S
O58         Ni59   1.935       .  S
Ni59         O63   1.909       .  S
Ni59         O61   1.903       .  S
O60         Ni65   1.931       .  S
C62          O63   1.266       .  A
C62        C1066   1.481       .  S
O67         Ni73   1.925       .  S
O67          C88   1.271       .  A
O68         Ni91   1.894       .  S
O68          C77   1.266       .  A
O69         Ni73   1.908       .  S
O69         Ni91   1.889       .  S
O69         Ni85   1.903       .  S
O69          H92   0.967       .  S
C70          O87   1.270       .  A
C70          O79   1.275       .  A
C70        C1286   1.472       .  S
O71         Ni90   1.921       .  S
O71          C77   1.268       .  A
O72         Ni90   1.904       .  S
O72          C74   1.267       .  A
Ni73         O76   1.916       .  S
Ni73         O78   1.926       .  S
C74          O84   1.272       .  A
C74        C1037   1.485       .  S
O75         Ni91   1.933       .  S
O75          C81   1.281       .  A
O76          C81   1.276       .  A
C77         C977   1.464       .  S
O78          C80   1.272       .  A
O79         Ni90   1.928       .  S
C80          O86   1.272       .  A
C80         C966   1.504       .  S
C81        C1006   1.482       .  S
H82          O83   0.966       .  S
O83         Ni91   1.922       .  S
O83         Ni85   1.899       .  S
O83         Ni90   1.916       .  S
O84         Ni85   1.928       .  S
Ni85         O89   1.885       .  S
Ni85         O87   1.905       .  S
O86         Ni91   1.931       .  S
C88          O89   1.262       .  A
C88        C1026   1.456       .  S
O93         Ni99   1.930       .  S
O93         C114   1.270       .  A
O94        Ni117   1.899       .  S
O94         C103   1.263       .  A
O95         Ni99   1.909       .  S
O95        Ni117   1.899       .  S
O95        Ni111   1.905       .  S
O95         H118   0.966       .  S
C96         O113   1.273       .  A
C96         O105   1.275       .  A
C96        C1266   1.464       .  S
O97        Ni116   1.909       .  S
O97         C103   1.263       .  A
O98        Ni116   1.896       .  S
O98         C100   1.265       .  A
Ni99        O102   1.917       .  S
Ni99        O104   1.905       .  S
C100        O110   1.266       .  A
C100        C937   1.466       .  S
O101       Ni117   1.907       .  S
O101        C107   1.274       .  A
O102        C107   1.275       .  A
C103        C877   1.455       .  S
O104        C106   1.268       .  A
O105       Ni116   1.917       .  S
C106        O112   1.267       .  A
C106        C857   1.476       .  S
C107        C897   1.462       .  S
H108        O109   0.967       .  S
O109       Ni117   1.910       .  S
O109       Ni111   1.891       .  S
O109       Ni116   1.911       .  S
O110       Ni111   1.915       .  S
Ni111       O115   1.883       .  S
Ni111       O113   1.904       .  S
O112       Ni117   1.913       .  S
C114        O115   1.262       .  A
C114        C917   1.462       .  S
O119       Ni127   1.899       .  S
O119        C129   1.277       .  A
O120       Ni127   1.893   1_545  S
O120        C130   1.277       .  A
O121       Ni127   1.894   1_554  S
O121        C131   1.278       .  A
O122       Ni127   1.898   1_545  S
O122        C132   1.279       .  A
O123       Ni128   1.907   1_545  S
O123        C132   1.278       .  A
O124       Ni128   1.901       .  S
O124        C131   1.277   1_556  A
O125       Ni128   1.917   1_545  S
O125        C130   1.281       .  A
O126       Ni128   1.919       .  S
O126        C129   1.282       .  A
Ni127      Ni128   2.394       .  S
C129        C846   1.468       .  S
C130       C1237   1.463   1_556  S
C131        C926   1.457       .  S
C132        C817   1.466       .  S
O133       Ni141   1.927   1_655  S
O133        C143   1.283       .  A
O134       Ni141   1.918       .  S
O134        C144   1.279       .  A
O135       Ni141   1.914   1_655  S
O135        C145   1.281       .  A
O136       Ni141   1.916       .  S
O136        C146   1.281       .  A
O137       Ni142   1.901       .  S
O137        C146   1.277       .  A
O138       Ni142   1.905   1_655  S
O138        C145   1.278       .  A
O139       Ni142   1.934       .  S
O139        C144   1.284       .  A
O140       Ni142   1.920   1_655  S
O140        C143   1.281       .  A
Ni141      Ni142   2.381       .  S
C143       C1137   1.498   1_556  S
C144        C806   1.482       .  S
C145        C777   1.486       .  S
C146       C1217   1.484   1_556  S
O147       Ni155   1.928       .  S
O147        C157   1.283       .  A
O148       Ni155   1.918   1_565  S
O148        C158   1.281       .  A
O149       Ni155   1.927       .  S
O149        C159   1.282       .  A
O150       Ni155   1.918   1_565  S
O150        C160   1.280       .  A
O151       Ni156   1.919   1_565  S
O151        C160   1.281       .  A
O152       Ni156   1.915       .  S
O152        C159   1.281       .  A
O153       Ni156   1.919   1_565  S
O153        C158   1.281       .  A
O154       Ni156   1.913       .  S
O154        C157   1.279       .  A
Ni155      Ni156   2.380       .  S
C157        C757   1.479       .  S
C158       C1046   1.499   1_556  S
C159       C1117   1.482   1_556  S
C160        C746   1.507       .  S
O161       Ni169   1.939   1_554  S
O161        C171   1.287       .  A
O162       Ni169   1.930   1_655  S
O162        C172   1.283       .  A
O163       Ni169   1.895       .  S
O163        C173   1.275       .  A
O164       Ni169   1.905   1_654  S
O164        C174   1.277       .  A
O165       Ni170   1.901   1_654  S
O165        C174   1.277       .  A
O166       Ni170   1.910       .  S
O166        C173   1.281       .  A
O167       Ni170   1.897   1_655  S
O167        C172   1.274       .  A
O168       Ni170   1.892       .  S
O168        C171   1.275   1_556  A
Ni169      Ni170   2.381       .  S
C171        C946   1.479       .  S
C172        C717   1.502       .  S
C173        C697   1.454       .  S
C174       C1017   1.481       .  S
O175       Ni181   1.931       .  S
O175        C196   1.270       .  A
O176       Ni199   1.902       .  S
O176        C185   1.264       .  A
O177       Ni181   1.907       .  S
O177       Ni199   1.896       .  S
O177       Ni193   1.897       .  S
O177        H200   0.967       .  S
C178        O195   1.271       .  A
C178        O187   1.276       .  A
C178        C706   1.449       .  S
O179       Ni198   1.911       .  S
O179        C185   1.264       .  A
O180       Ni198   1.896       .  S
O180        C182   1.265       .  A
Ni181       O184   1.914       .  S
Ni181       O186   1.918       .  S
C182        O192   1.277       .  A
C182        C677   1.490       .  S
O183       Ni199   1.897       .  S
O183        C189   1.273       .  A
O184        C189   1.277       .  A
C185        C617   1.466       .  S
O186        C188   1.270       .  A
O187       Ni198   1.913       .  S
C188        O194   1.272       .  A
C188        C657   1.502       .  S
C189        C637   1.455       .  S
H190        O191   0.965       .  S
O191       Ni199   1.903       .  S
O191       Ni193   1.887       .  S
O191       Ni198   1.898       .  S
O192       Ni193   1.950       .  S
Ni193       O197   1.885       .  S
Ni193       O195   1.889       .  S
O194       Ni199   1.935       .  S
C196        O197   1.264       .  A
C196        C837   1.465       .  S
O201       Ni209   1.909   1_655  S
O201        C211   1.279       .  A
O202       Ni209   1.913   1_545  S
O202        C212   1.280       .  A
O203       Ni209   1.918   1_645  S
O203        C213   1.281       .  A
O204       Ni209   1.920       .  S
O204        C214   1.280       .  A
O205       Ni210   1.930       .  S
O205        C214   1.283       .  A
O206       Ni210   1.931   1_645  S
O206        C213   1.285       .  A
O207       Ni210   1.903   1_545  S
O207        C212   1.277       .  A
O208       Ni210   1.915   1_655  S
O208        C211   1.280       .  A
Ni209      Ni210   2.382       .  S
C211        C557   1.468       .  S
C212        C597   1.465       .  S
C213        C577   1.498       .  S
C214        C686   1.516       .  S
O215       Ni221   1.943       .  S
O215        C236   1.273       .  A
O216       Ni239   1.894       .  S
O216        C225   1.263       .  A
O217       Ni221   1.920       .  S
O217       Ni239   1.909       .  S
O217       Ni233   1.917       .  S
O217        H240   0.966       .  S
C218        O235   1.277       .  A
C218        O227   1.273       .  A
C218        C606   1.462       .  S
O219       Ni238   1.919       .  S
O219        C225   1.267       .  A
O220       Ni238   1.907       .  S
O220        C222   1.268       .  A
Ni221       O224   1.940       .  S
Ni221       O226   1.903       .  S
C222        O232   1.266       .  A
C222        C797   1.485       .  S
O223       Ni239   1.892       .  S
O223        C229   1.266       .  A
O224        C229   1.277       .  A
C225        C526   1.459       .  S
O226        C228   1.269       .  A
O227       Ni238   1.909       .  S
C228        O234   1.275       .  A
C228        C506   1.477       .  S
C229        C537   1.474       .  S
H230        O231   0.965       .  S
O231       Ni239   1.891       .  S
O231       Ni233   1.888       .  S
O231       Ni238   1.914       .  S
O232       Ni233   1.919       .  S
Ni233       O237   1.882       .  S
Ni233       O235   1.915       .  S
O234       Ni239   1.934       .  S
C236        O237   1.263       .  A
C236        C826   1.469       .  S
O241       Ni247   1.926       .  S
O241        C262   1.270       .  A
O242       Ni265   1.899       .  S
O242        C251   1.267       .  A
O243       Ni247   1.915       .  S
O243       Ni265   1.895       .  S
O243       Ni259   1.912       .  S
O243        H266   0.965       .  S
C244        O261   1.273       .  A
C244        O253   1.277       .  A
C244        C586   1.501       .  S
O245       Ni264   1.942       .  S
O245        C251   1.275       .  A
O246       Ni264   1.915       .  S
O246        C248   1.271       .  A
Ni247       O250   1.921       .  S
Ni247       O252   1.912       .  S
C248        O258   1.272       .  A
C248        C766   1.483       .  S
O249       Ni265   1.926       .  S
O249        C255   1.278       .  A
O250        C255   1.275       .  A
C251        C466   1.485       .  S
O252        C254   1.270       .  A
O253       Ni264   1.945       .  S
C254        O260   1.273       .  A
C254        C437   1.488       .  S
C255        C477   1.482       .  S
H256        O257   0.967       .  S
O257       Ni265   1.926       .  S
O257       Ni259   1.912       .  S
O257       Ni264   1.924       .  S
O258       Ni259   1.928       .  S
Ni259       O263   1.894       .  S
Ni259       O261   1.919       .  S
O260       Ni265   1.928       .  S
C262        O263   1.265       .  A
C262        C786   1.477       .  S
O267       Ni273   1.920       .  S
O267        C288   1.270       .  A
O268       Ni291   1.881       .  S
O268        C277   1.260       .  A
O269       Ni273   1.924       .  S
O269       Ni291   1.904       .  S
O269       Ni285   1.929       .  S
O269        H292   0.960       .  S
C270        O287   1.274       .  A
C270        O279   1.276       .  A
C270        C417   1.481       .  S
O271       Ni290   1.937       .  S
O271        C277   1.272       .  A
O272       Ni290   1.917       .  S
O272        C274   1.270       .  A
Ni273       O276   1.937       .  S
Ni273       O278   1.905       .  S
C274        O284   1.271       .  A
C274        C397   1.488       .  S
O275       Ni291   1.895       .  S
O275        C281   1.262       .  A
O276        C281   1.271       .  A
C277        C726   1.461       .  S
O278        C280   1.270       .  A
O279       Ni290   1.929       .  S
C280        O286   1.282       .  A
C280        C737   1.494       .  S
C281        C566   1.477       .  S
H282        O283   0.942       .  S
O283       Ni291   1.894       .  S
O283       Ni285   1.890       .  S
O283       Ni290   1.921       .  S
O284       Ni285   1.937       .  S
Ni285       O289   1.874       .  S
Ni285       O287   1.913       .  S
O286       Ni291   1.963       .  S
C288        O289   1.260       .  A
C288        C377   1.459       .  S
O293       Ni301   1.920       .  S
O293        C303   1.281       .  A
O294       Ni301   1.914       .  S
O294        C304   1.280       .  A
O295       Ni301   1.924       .  S
O295        C305   1.283       .  A
O296       Ni301   1.927       .  S
O296        C306   1.283       .  A
O297       Ni302   1.935       .  S
O297        C306   1.285       .  A
O298       Ni302   1.933       .  S
O298        C305   1.284       .  A
O299       Ni302   1.909       .  S
O299        C304   1.279       .  A
O300       Ni302   1.916       .  S
O300        C303   1.279       .  A
Ni301      Ni302   2.387       .  S
C303        C546   1.473       .  S
C304        C426   1.466       .  S
C305        C666   1.498       .  S
C306        C486   1.500       .  S
O307       Ni315   1.914       .  S
O307        C317   1.280       .  A
O308       Ni315   1.908       .  S
O308        C318   1.277       .  A
O309       Ni315   1.924       .  S
O309        C319   1.282       .  A
O310       Ni315   1.934       .  S
O310        C320   1.285       .  A
O311       Ni316   1.919       .  S
O311        C320   1.280       .  A
O312       Ni316   1.915       .  S
O312        C319   1.280       .  A
O313       Ni316   1.919       .  S
O313        C318   1.282       .  A
O314       Ni316   1.911       .  S
O314        C317   1.278       .  A
Ni315      Ni316   2.382       .  S
C317       C1097   1.465       .  S
C318        C906   1.469       .  S
C319        C997   1.503       .  S
C320       C1206   1.509       .  S
O321       Ni329   1.943       .  S
O321        C331   1.285       .  A
O322       Ni329   1.929       .  S
O322        C332   1.282       .  A
O323       Ni329   1.922       .  S
O323        C333   1.282       .  A
O324       Ni329   1.919       .  S
O324        C334   1.280       .  A
O325       Ni330   1.927       .  S
O325        C334   1.282       .  A
O326       Ni330   1.927       .  S
O326        C333   1.283       .  A
O327       Ni330   1.941       .  S
O327        C332   1.285       .  A
O328       Ni330   1.932       .  S
O328        C331   1.283       .  A
Ni329      Ni330   2.378       .  S
C331        C957   1.499       .  S
C332        C446   1.493       .  S
C333        C406   1.500       .  S
C334       C1077   1.509       .  S
O335       Ni343   1.897       .  S
O335        C345   1.277       .  A
O336       Ni343   1.904       .  S
O336        C346   1.278       .  A
O337       Ni343   1.912       .  S
O337        C347   1.281       .  A
O338       Ni343   1.916       .  S
O338        C348   1.282       .  A
O339       Ni344   1.892       .  S
O339        C348   1.276       .  A
O340       Ni344   1.897       .  S
O340        C347   1.276       .  A
O341       Ni344   1.919       .  S
O341        C346   1.281       .  A
O342       Ni344   1.920       .  S
O342        C345   1.282       .  A
Ni343      Ni344   2.392       .  S
C345        C386   1.470       .  S
C346        C866   1.465       .  S
C347        C986   1.464       .  S
C348        C646   1.470       .  S
O349       Ni357   1.909       .  S
O349        C359   1.279       .  A
O350       Ni357   1.911       .  S
O350        C360   1.280       .  A
O351       Ni357   1.900       .  S
O351        C361   1.276       .  A
O352       Ni357   1.905       .  S
O352        C362   1.279       .  A
O353       Ni358   1.918       .  S
O353        C362   1.280       .  A
O354       Ni358   1.913       .  S
O354        C361   1.279       .  A
O355       Ni358   1.913       .  S
O355        C360   1.279       .  A
O356       Ni358   1.921       .  S
O356        C359   1.282       .  A
Ni357      Ni358   2.380       .  S
C359       C1157   1.475       .  S
C360        C626   1.471       .  S
C361        C517   1.500       .  S
C362        C886   1.488       .  S
O363       Ni371   1.915       .  S
O363        C373   1.281       .  A
O364       Ni371   1.912       .  S
O364        C374   1.280       .  A
O365       Ni371   1.908       .  S
O365        C375   1.279       .  A
O366       Ni371   1.913       .  S
O366        C376   1.281       .  A
O367       Ni372   1.927       .  S
O367        C376   1.282       .  A
O368       Ni372   1.914       .  S
O368        C375   1.281       .  A
O369       Ni372   1.923       .  S
O369        C374   1.282       .  A
O370       Ni372   1.921       .  S
O370        C373   1.282       .  A
Ni371      Ni372   2.384       .  S
C373        C497   1.486       .  S
C374       C1057   1.479       .  S
C375       C1186   1.475       .  S
C376        C457   1.496       .  S
C377        C378   1.411       .  A
C377        C382   1.407       .  A
C378        C379   1.401       .  A
C378       Br390   1.935       .  S
C379        C380   1.407       .  A
C379       Br394   1.930       .  S
C380        C383   1.471       .  S
C380        C381   1.408       .  A
C381        C382   1.401       .  A
C381       Br389   1.930       .  S
C382       Br393   1.933       .  S
C383        C384   1.407       .  A
C383        C388   1.405       .  A
C384        C385   1.404       .  A
C384       Br395   1.932       .  S
C385        C386   1.413       .  A
C385       Br391   1.931       .  S
C386        C387   1.413       .  A
C387        C388   1.402       .  A
C387       Br396   1.934       .  S
C388       Br392   1.932       .  S
C397        C398   1.411       .  A
C397        C402   1.412       .  A
C398        C399   1.415       .  A
C398       Br410   1.927       .  S
C399        C400   1.413       .  A
C399       Br414   1.927       .  S
C400        C403   1.501       .  S
C400        C401   1.411       .  A
C401        C402   1.411       .  A
C401       Br409   1.929       .  S
C402       Br413   1.930       .  S
C403        C404   1.410       .  A
C403        C408   1.410       .  A
C404        C405   1.414       .  A
C404       Br415   1.930       .  S
C405        C406   1.420       .  A
C405       Br411   1.934       .  S
C406        C407   1.420       .  A
C407        C408   1.413       .  A
C407       Br416   1.935       .  S
C408       Br412   1.930       .  S
C417        C418   1.413       .  A
C417        C422   1.415       .  A
C418        C419   1.406       .  A
C418       Br430   1.930       .  S
C419        C420   1.407       .  A
C419       Br434   1.932       .  S
C420        C423   1.479       .  S
C420        C421   1.406       .  A
C421        C422   1.406       .  A
C421       Br429   1.932       .  S
C422       Br433   1.928       .  S
C423        C424   1.409       .  A
C423        C428   1.409       .  A
C424        C425   1.404       .  A
C424       Br435   1.931       .  S
C425        C426   1.408       .  A
C425       Br431   1.931       .  S
C426        C427   1.408       .  A
C427        C428   1.405       .  A
C427       Br436   1.931       .  S
C428       Br432   1.929       .  S
C437        C438   1.415       .  A
C437        C442   1.417       .  A
C438        C439   1.413       .  A
C438       Br450   1.931       .  S
C439        C440   1.411       .  A
C439       Br454   1.928       .  S
C440        C443   1.495       .  S
C440        C441   1.409       .  A
C441        C442   1.408       .  A
C441       Br449   1.931       .  S
C442       Br453   1.935       .  S
C443        C444   1.410       .  A
C443        C448   1.409       .  A
C444        C445   1.412       .  A
C444       Br455   1.932       .  S
C445        C446   1.413       .  A
C445       Br451   1.924       .  S
C446        C447   1.413       .  A
C447        C448   1.414       .  A
C447       Br456   1.926       .  S
C448       Br452   1.929       .  S
C457        C458   1.420       .  A
C457        C462   1.420       .  A
C458        C459   1.409       .  A
C458       Br470   1.935       .  S
C459        C460   1.405       .  A
C459       Br474   1.930       .  S
C460        C463   1.488       .  S
C460        C461   1.408       .  A
C461        C462   1.411       .  A
C461       Br469   1.934       .  S
C462       Br473   1.932       .  S
C463        C464   1.407       .  A
C463        C468   1.408       .  A
C464        C465   1.407       .  A
C464       Br475   1.930       .  S
C465        C466   1.414       .  A
C465       Br471   1.930       .  S
C466        C467   1.415       .  A
C467        C468   1.410       .  A
C467       Br476   1.928       .  S
C468       Br472   1.930       .  S
C477        C478   1.411       .  A
C477        C482   1.415       .  A
C478        C479   1.410       .  A
C478       Br490   1.928       .  S
C479        C480   1.409       .  A
C479       Br494   1.928       .  S
C480        C483   1.491       .  S
C480        C481   1.410       .  A
C481        C482   1.408       .  A
C481       Br489   1.930       .  S
C482       Br493   1.935       .  S
C483        C484   1.407       .  A
C483        C488   1.406       .  A
C484        C485   1.412       .  A
C484       Br495   1.933       .  S
C485        C486   1.419       .  A
C485       Br491   1.929       .  S
C486        C487   1.421       .  A
C487        C488   1.412       .  A
C487       Br496   1.931       .  S
C488       Br492   1.930       .  S
C497        C498   1.414       .  A
C497        C502   1.416       .  A
C498        C499   1.408       .  A
C498       Br510   1.933       .  S
C499        C500   1.411       .  A
C499       Br514   1.932       .  S
C500        C503   1.487       .  S
C500        C501   1.408       .  A
C501        C502   1.410       .  A
C501       Br509   1.930       .  S
C502       Br513   1.933       .  S
C503        C504   1.413       .  A
C503        C508   1.407       .  A
C504        C505   1.414       .  A
C504       Br515   1.927       .  S
C505        C506   1.411       .  A
C505       Br511   1.929       .  S
C506        C507   1.412       .  A
C507        C508   1.401       .  A
C507       Br516   1.933       .  S
C508       Br512   1.933       .  S
C517        C518   1.430       .  A
C517        C522   1.431       .  A
C518        C519   1.407       .  A
C518       Br530   1.938       .  S
C519        C520   1.400       .  A
C519       Br534   1.936       .  S
C520        C523   1.470       .  S
C520        C521   1.399       .  A
C521        C522   1.403       .  A
C521       Br529   1.938       .  S
C522       Br533   1.940       .  S
C523        C524   1.407       .  A
C523        C528   1.407       .  A
C524        C525   1.402       .  A
C524       Br535   1.929       .  S
C525        C526   1.407       .  A
C525       Br531   1.930       .  S
C526        C527   1.409       .  A
C527        C528   1.401       .  A
C527       Br536   1.931       .  S
C528       Br532   1.932       .  S
C537        C538   1.409       .  A
C537        C542   1.413       .  A
C538        C539   1.408       .  A
C538       Br550   1.928       .  S
C539        C540   1.411       .  A
C539       Br554   1.931       .  S
C540        C543   1.483       .  S
C540        C541   1.408       .  A
C541        C542   1.405       .  A
C541       Br549   1.931       .  S
C542       Br553   1.933       .  S
C543        C544   1.411       .  A
C543        C548   1.408       .  A
C544        C545   1.409       .  A
C544       Br555   1.930       .  S
C545        C546   1.411       .  A
C545       Br551   1.929       .  S
C546        C547   1.408       .  A
C547        C548   1.404       .  A
C547       Br556   1.927       .  S
C548       Br552   1.932       .  S
C557        C558   1.408       .  A
C557        C562   1.407       .  A
C558        C559   1.408       .  A
C558       Br570   1.931   1_655  S
C559        C560   1.412       .  A
C559       Br574   1.927       .  S
C560        C563   1.483       .  S
C560        C561   1.409       .  A
C561        C562   1.403       .  A
C561       Br569   1.930       .  S
C562       Br573   1.931       .  S
C563        C564   1.409       .  A
C563        C568   1.409       .  A
C564        C565   1.406       .  A
C564       Br575   1.930       .  S
C565        C566   1.411       .  A
C565       Br571   1.931       .  S
C566        C567   1.413       .  A
C567        C568   1.408       .  A
C567       Br576   1.932       .  S
C568       Br572   1.929       .  S
C577        C578   1.417       .  A
C577        C582   1.420       .  A
C578        C579   1.413       .  A
C578       Br590   1.932       .  S
C579        C580   1.410       .  A
C579       Br594   1.930       .  S
C580        C583   1.500       .  S
C580        C581   1.410       .  A
C581        C582   1.413       .  A
C581       Br589   1.931       .  S
C582       Br593   1.935       .  S
C583        C584   1.411       .  A
C583        C588   1.409       .  A
C584        C585   1.416       .  A
C584       Br595   1.929       .  S
C585        C586   1.419       .  A
C585       Br591   1.930       .  S
C586        C587   1.418       .  A
C587        C588   1.412       .  A
C587       Br596   1.930       .  S
C588       Br592   1.933       .  S
C597        C598   1.409       .  A
C597        C602   1.411       .  A
C598        C599   1.400       .  A
C598       Br610   1.927       .  S
C599        C600   1.405       .  A
C599       Br614   1.932       .  S
C600        C603   1.469       .  S
C600        C601   1.408       .  A
C601        C602   1.404       .  A
C601       Br609   1.930       .  S
C602       Br613   1.932       .  S
C603        C604   1.406       .  A
C603        C608   1.407       .  A
C604        C605   1.399       .  A
C604       Br615   1.934       .  S
C605        C606   1.410       .  A
C605       Br611   1.929       .  S
C606        C607   1.407       .  A
C607        C608   1.404       .  A
C607       Br616   1.929       .  S
C608       Br612   1.928       .  S
C617        C618   1.413       .  A
C617        C622   1.408       .  A
C618        C619   1.401       .  A
C618       Br630   1.933       .  S
C619        C620   1.406       .  A
C619       Br634   1.932       .  S
C620        C623   1.473       .  S
C620        C621   1.408       .  A
C621        C622   1.404       .  A
C621       Br629   1.930       .  S
C622       Br633   1.930       .  S
C623        C624   1.406       .  A
C623        C628   1.406       .  A
C624        C625   1.402       .  A
C624       Br635   1.932       .  S
C625        C626   1.411       .  A
C625       Br631   1.931       .  S
C626        C627   1.413       .  A
C627        C628   1.406       .  A
C627       Br636   1.931       .  S
C628       Br632   1.931       .  S
C637        C638   1.408       .  A
C637        C642   1.408       .  A
C638        C639   1.398       .  A
C638       Br650   1.936       .  S
C639        C640   1.407       .  A
C639       Br654   1.930       .  S
C640        C643   1.468       .  S
C640        C641   1.407       .  A
C641        C642   1.402       .  A
C641       Br649   1.930       .  S
C642       Br653   1.931       .  S
C643        C644   1.404       .  A
C643        C648   1.406       .  A
C644        C645   1.401       .  A
C644       Br655   1.931       .  S
C645        C646   1.417       .  A
C645       Br651   1.937       .  S
C646        C647   1.413       .  A
C647        C648   1.402       .  A
C647       Br656   1.932       .  S
C648       Br652   1.933       .  S
C657        C658   1.422       .  A
C657        C662   1.418       .  A
C658        C659   1.413       .  A
C658       Br670   1.933       .  S
C659        C660   1.410       .  A
C659       Br674   1.934       .  S
C660        C663   1.499       .  S
C660        C661   1.411       .  A
C661        C662   1.412       .  A
C661       Br669   1.933       .  S
C662       Br673   1.931       .  S
C663        C664   1.410       .  A
C663        C668   1.412       .  A
C664        C665   1.411       .  A
C664       Br675   1.931       .  S
C665        C666   1.418       .  A
C665       Br671   1.932       .  S
C666        C667   1.419       .  A
C667        C668   1.414       .  A
C667       Br676   1.931       .  S
C668       Br672   1.934       .  S
C677        C678   1.419       .  A
C677        C682   1.413       .  A
C678        C679   1.407       .  A
C678       Br690   1.935       .  S
C679        C680   1.407       .  A
C679       Br694   1.934       .  S
C680        C683   1.490       .  S
C680        C681   1.408       .  A
C681        C682   1.413       .  A
C681       Br689   1.927       .  S
C682       Br693   1.926       .  S
C683        C684   1.403       .  A
C683        C688   1.401       .  A
C684        C685   1.412       .  A
C684       Br695   1.935       .  S
C685        C686   1.430       .  A
C685       Br691   1.936       .  S
C686        C687   1.434       .  A
C687        C688   1.413       .  A
C687       Br696   1.937       .  S
C688       Br692   1.934       .  S
C697        C698   1.407       .  A
C697        C702   1.407       .  A
C698        C699   1.400       .  A
C698       Br710   1.929       .  S
C699        C700   1.408       .  A
C699       Br714   1.932       .  S
C700        C703   1.460       .  S
C700        C701   1.404       .  A
C701        C702   1.396       .  A
C701       Br709   1.930       .  S
C702       Br713   1.930       .  S
C703        C704   1.405       .  A
C703        C708   1.407       .  A
C704        C705   1.398       .  A
C704       Br715   1.930       .  S
C705        C706   1.407       .  A
C705       Br711   1.931       .  S
C706        C707   1.409       .  A
C707        C708   1.395       .  A
C707       Br716   1.936       .  S
C708       Br712   1.933       .  S
C717        C718   1.432       .  A
C717        C722   1.426       .  A
C718        C719   1.404       .  A
C718       Br730   1.940       .  S
C719        C720   1.399       .  A
C719       Br734   1.938       .  S
C720        C723   1.475       .  S
C720        C721   1.402       .  A
C721        C722   1.409       .  A
C721       Br729   1.934       .  S
C722       Br733   1.934       .  S
C723        C724   1.407       .  A
C723        C728   1.409       .  A
C724        C725   1.401       .  A
C724       Br735   1.929       .  S
C725        C726   1.407       .  A
C725       Br731   1.928       .  S
C726        C727   1.407       .  A
C727        C728   1.405       .  A
C727       Br736   1.929       .  S
C728       Br732   1.929       .  S
C737        C738   1.420       .  A
C737        C742   1.415       .  A
C738        C739   1.408       .  A
C738       Br750   1.933       .  S
C739        C740   1.406       .  A
C739       Br754   1.934       .  S
C740        C743   1.489       .  S
C740        C741   1.409       .  A
C741        C742   1.412       .  A
C741       Br749   1.930       .  S
C742       Br753   1.924       .  S
C743        C744   1.403       .  A
C743        C748   1.405       .  A
C744        C745   1.408       .  A
C744       Br755   1.936       .  S
C745        C746   1.428       .  A
C745       Br751   1.936       .  S
C746        C747   1.429       .  A
C747        C748   1.413       .  A
C747       Br756   1.937       .  S
C748       Br752   1.933       .  S
C757        C758   1.410       .  A
C757        C762   1.410       .  A
C758        C759   1.410       .  A
C758       Br770   1.928       .  S
C759        C760   1.412       .  A
C759       Br774   1.931       .  S
C760        C763   1.490       .  S
C760        C761   1.412       .  A
C761        C762   1.407       .  A
C761       Br769   1.931       .  S
C762       Br773   1.931       .  S
C763        C764   1.410       .  A
C763        C768   1.412       .  A
C764        C765   1.404       .  A
C764       Br775   1.933       .  S
C765        C766   1.411       .  A
C765       Br771   1.931       .  S
C766        C767   1.413       .  A
C767        C768   1.413       .  A
C767       Br776   1.927       .  S
C768       Br772   1.929       .  S
C777        C778   1.421       .  A
C777        C782   1.421       .  A
C778        C779   1.406       .  A
C778       Br790   1.936       .  S
C779        C780   1.404       .  A
C779       Br794   1.933       .  S
C780        C783   1.476       .  S
C780        C781   1.404       .  A
C781        C782   1.404       .  A
C781       Br789   1.935       .  S
C782       Br793   1.935       .  S
C783        C784   1.406       .  A
C783        C788   1.406       .  A
C784        C785   1.403       .  A
C784       Br795   1.933       .  S
C785        C786   1.416       .  A
C785       Br791   1.935       .  S
C786        C787   1.414       .  A
C787        C788   1.406       .  A
C787       Br796   1.929       .  S
C788       Br792   1.931       .  S
C797        C798   1.412       .  A
C797        C802   1.418       .  A
C798        C799   1.407       .  A
C798       Br810   1.931       .  S
C799        C800   1.409       .  A
C799       Br814   1.928       .  S
C800        C803   1.486       .  S
C800        C801   1.408       .  A
C801        C802   1.407       .  A
C801       Br809   1.931       .  S
C802       Br813   1.935       .  S
C803        C804   1.408       .  A
C803        C808   1.409       .  A
C804        C805   1.411       .  A
C804       Br815   1.929       .  S
C805        C806   1.413       .  A
C805       Br811   1.927       .  S
C806        C807   1.409       .  A
C807        C808   1.408       .  A
C807       Br816   1.923       .  S
C808       Br812   1.931       .  S
C817        C818   1.410       .  A
C817        C822   1.413       .  A
C818        C819   1.401       .  A
C818       Br830   1.932   1_545  S
C819        C820   1.405       .  A
C819       Br834   1.929       .  S
C820        C823   1.470       .  S
C820        C821   1.408       .  A
C821        C822   1.402       .  A
C821       Br829   1.933       .  S
C822       Br833   1.934       .  S
C823        C824   1.408       .  A
C823        C828   1.404       .  A
C824        C825   1.405       .  A
C824       Br835   1.932       .  S
C825        C826   1.409       .  A
C825       Br831   1.928       .  S
C826        C827   1.410       .  A
C827        C828   1.400       .  A
C827       Br836   1.926       .  S
C828       Br832   1.932       .  S
C837        C838   1.410       .  A
C837        C842   1.409       .  A
C838        C839   1.402       .  A
C838       Br850   1.931       .  S
C839        C840   1.407       .  A
C839       Br854   1.931       .  S
C840        C843   1.472       .  S
C840        C841   1.406       .  A
C841        C842   1.402       .  A
C841       Br849   1.929       .  S
C842       Br853   1.930       .  S
C843        C844   1.404       .  A
C843        C848   1.410       .  A
C844        C845   1.404       .  A
C844       Br855   1.930       .  S
C845        C846   1.413       .  A
C845       Br851   1.931       .  S
C846        C847   1.409       .  A
C847        C848   1.402       .  A
C847       Br856   1.932       .  S
C848       Br852   1.933       .  S
C857        C858   1.411       .  A
C857        C862   1.415       .  A
C858        C859   1.405       .  A
C858       Br870   1.932       .  S
C859        C860   1.408       .  A
C859       Br874   1.929       .  S
C860        C863   1.481       .  S
C860        C861   1.408       .  A
C861        C862   1.406       .  A
C861       Br869   1.931       .  S
C862       Br873   1.934       .  S
C863        C864   1.411       .  A
C863        C868   1.409       .  A
C864        C865   1.403       .  A
C864       Br875   1.931       .  S
C865        C866   1.406       .  A
C865       Br871   1.930       .  S
C866        C867   1.409       .  A
C867        C868   1.407       .  A
C867       Br876   1.928       .  S
C868       Br872   1.928       .  S
C877        C878   1.403       .  A
C877        C882   1.407       .  A
C878        C879   1.404       .  A
C878       Br890   1.929       .  S
C879        C880   1.410       .  A
C879       Br894   1.928       .  S
C880        C883   1.473       .  S
C880        C881   1.407       .  A
C881        C882   1.399       .  A
C881       Br889   1.931       .  S
C882       Br893   1.932       .  S
C883        C884   1.404       .  A
C883        C888   1.403       .  A
C884        C885   1.407       .  A
C884       Br895   1.932       .  S
C885        C886   1.421       .  A
C885       Br891   1.931       .  S
C886        C887   1.420       .  A
C887        C888   1.401       .  A
C887       Br896   1.936       .  S
C888       Br892   1.935       .  S
C897        C898   1.407       .  A
C897        C902   1.407       .  A
C898        C899   1.403       .  A
C898       Br910   1.934       .  S
C899        C900   1.411       .  A
C899       Br914   1.931       .  S
C900        C903   1.479       .  S
C900        C901   1.409       .  A
C901        C902   1.404       .  A
C901       Br909   1.929       .  S
C902       Br913   1.930       .  S
C903        C904   1.408       .  A
C903        C908   1.412       .  A
C904        C905   1.406       .  A
C904       Br915   1.932       .  S
C905        C906   1.412       .  A
C905       Br911   1.929       .  S
C906        C907   1.404       .  A
C907        C908   1.403       .  A
C907       Br916   1.929       .  S
C908       Br912   1.930       .  S
C917        C918   1.413       .  A
C917        C922   1.410       .  A
C918        C919   1.400       .  A
C918       Br930   1.927       .  S
C919        C920   1.400       .  A
C919       Br934   1.930       .  S
C920        C923   1.460       .  S
C920        C921   1.406       .  A
C921        C922   1.398       .  A
C921       Br929   1.935       .  S
C922       Br933   1.932       .  S
C923        C924   1.408       .  A
C923        C928   1.401       .  A
C924        C925   1.398       .  A
C924       Br935   1.934       .  S
C925        C926   1.409       .  A
C925       Br931   1.934       .  S
C926        C927   1.412       .  A
C927        C928   1.398       .  A
C927       Br936   1.932   1_565  S
C928       Br932   1.930       .  S
C937        C938   1.409       .  A
C937        C942   1.411       .  A
C938        C939   1.402       .  A
C938       Br950   1.932       .  S
C939        C940   1.411       .  A
C939       Br954   1.933       .  S
C940        C943   1.474       .  S
C940        C941   1.406       .  A
C941        C942   1.402       .  A
C941       Br949   1.931       .  S
C942       Br953   1.931       .  S
C943        C944   1.407       .  A
C943        C948   1.403       .  A
C944        C945   1.405       .  A
C944       Br955   1.936       .  S
C945        C946   1.412       .  A
C945       Br951   1.920       .  S
C946        C947   1.419       .  A
C947        C948   1.403       .  A
C947       Br956   1.934   1_554  S
C948       Br952   1.932       .  S
C957        C958   1.413       .  A
C957        C962   1.414       .  A
C958        C959   1.417       .  A
C958       Br970   1.930       .  S
C959        C960   1.413       .  A
C959       Br974   1.927       .  S
C960        C963   1.505       .  S
C960        C961   1.410       .  A
C961        C962   1.415       .  A
C961       Br969   1.931       .  S
C962       Br973   1.923       .  S
C963        C964   1.410       .  A
C963        C968   1.411       .  A
C964        C965   1.414       .  A
C964       Br975   1.930       .  S
C965        C966   1.421       .  A
C965       Br971   1.935       .  S
C966        C967   1.417       .  A
C967        C968   1.417       .  A
C967       Br976   1.930       .  S
C968       Br972   1.928       .  S
C977        C978   1.413       .  A
C977        C982   1.408       .  A
C978        C979   1.402       .  A
C978       Br990   1.932       .  S
C979        C980   1.406       .  A
C979       Br994   1.934       .  S
C980        C983   1.468       .  S
C980        C981   1.406       .  A
C981        C982   1.399       .  A
C981       Br989   1.931       .  S
C982       Br993   1.929       .  S
C983        C984   1.407       .  A
C983        C988   1.406       .  A
C984        C985   1.401       .  A
C984       Br995   1.934       .  S
C985        C986   1.412       .  A
C985       Br991   1.932       .  S
C986        C987   1.411       .  A
C987        C988   1.400       .  A
C987       Br996   1.932       .  S
C988       Br992   1.931       .  S
C997        C998   1.425       .  A
C997       C1002   1.425       .  A
C998        C999   1.408       .  A
C998      Br1010   1.936       .  S
C999       C1000   1.404       .  A
C999      Br1014   1.935       .  S
C1000      C1003   1.487       .  S
C1000      C1001   1.405       .  A
C1001      C1002   1.411       .  A
C1001     Br1009   1.932       .  S
C1002     Br1013   1.934       .  S
C1003      C1004   1.410       .  A
C1003      C1008   1.408       .  A
C1004      C1005   1.411       .  A
C1004     Br1015   1.928       .  S
C1005      C1006   1.412       .  A
C1005     Br1011   1.928       .  S
C1006      C1007   1.415       .  A
C1007      C1008   1.406       .  A
C1007     Br1016   1.934       .  S
C1008     Br1012   1.933       .  S
C1017      C1018   1.422       .  A
C1017      C1022   1.423       .  A
C1018      C1019   1.402       .  A
C1018     Br1030   1.932       .  S
C1019      C1020   1.400       .  A
C1019     Br1034   1.935       .  S
C1020      C1023   1.463       .  S
C1020      C1021   1.401       .  A
C1021      C1022   1.400       .  A
C1021     Br1029   1.936       .  S
C1022     Br1033   1.937       .  S
C1023      C1024   1.407       .  A
C1023      C1028   1.405       .  A
C1024      C1025   1.401       .  A
C1024     Br1035   1.932       .  S
C1025      C1026   1.408       .  A
C1025     Br1031   1.931       .  S
C1026      C1027   1.407       .  A
C1027      C1028   1.399       .  A
C1027     Br1036   1.928       .  S
C1028     Br1032   1.931       .  S
C1037      C1038   1.419       .  A
C1037      C1042   1.415       .  A
C1038      C1039   1.407       .  A
C1038     Br1050   1.935       .  S
C1039      C1040   1.406       .  A
C1039     Br1054   1.933       .  S
C1040      C1043   1.482       .  S
C1040      C1041   1.406       .  A
C1041      C1042   1.407       .  A
C1041     Br1049   1.931       .  S
C1042     Br1053   1.929       .  S
C1043      C1044   1.403       .  A
C1043      C1048   1.404       .  A
C1044      C1045   1.408       .  A
C1044     Br1055   1.933       .  S
C1045      C1046   1.425       .  A
C1045     Br1051   1.935       .  S
C1046      C1047   1.424       .  A
C1047      C1048   1.408       .  A
C1047     Br1056   1.933   1_554  S
C1048     Br1052   1.936       .  S
C1057      C1058   1.412       .  A
C1057      C1062   1.411       .  A
C1058      C1059   1.409       .  A
C1058     Br1070   1.931       .  S
C1059      C1060   1.410       .  A
C1059     Br1074   1.930       .  S
C1060      C1063   1.490       .  S
C1060      C1061   1.411       .  A
C1061      C1062   1.408       .  A
C1061     Br1069   1.929       .  S
C1062     Br1073   1.933       .  S
C1063      C1064   1.409       .  A
C1063      C1068   1.412       .  A
C1064      C1065   1.408       .  A
C1064     Br1075   1.929       .  S
C1065      C1066   1.412       .  A
C1065     Br1071   1.933       .  S
C1066      C1067   1.412       .  A
C1067      C1068   1.410       .  A
C1067     Br1076   1.931       .  S
C1068     Br1072   1.931       .  S
C1077      C1078   1.426       .  A
C1077      C1082   1.428       .  A
C1078      C1079   1.413       .  A
C1078     Br1090   1.935       .  S
C1079      C1080   1.405       .  A
C1079     Br1094   1.931       .  S
C1080      C1083   1.494       .  S
C1080      C1081   1.406       .  A
C1081      C1082   1.411       .  A
C1081     Br1089   1.934       .  S
C1082     Br1093   1.937       .  S
C1083      C1084   1.407       .  A
C1083      C1088   1.408       .  A
C1084      C1085   1.410       .  A
C1084     Br1095   1.930       .  S
C1085      C1086   1.420       .  A
C1085     Br1091   1.934       .  S
C1086      C1087   1.419       .  A
C1087      C1088   1.412       .  A
C1087     Br1096   1.931       .  S
C1088     Br1092   1.930       .  S
C1097      C1098   1.406       .  A
C1097      C1102   1.408       .  A
C1098      C1099   1.403       .  A
C1098     Br1110   1.928       .  S
C1099      C1100   1.408       .  A
C1099     Br1114   1.930       .  S
C1100      C1103   1.479       .  S
C1100      C1101   1.411       .  A
C1101      C1102   1.407       .  A
C1101     Br1109   1.929       .  S
C1102     Br1113   1.930       .  S
C1103      C1104   1.409       .  A
C1103      C1108   1.408       .  A
C1104      C1105   1.406       .  A
C1104     Br1115   1.930       .  S
C1105      C1106   1.410       .  A
C1105     Br1111   1.929       .  S
C1106      C1107   1.407       .  A
C1107      C1108   1.406       .  A
C1107     Br1116   1.928       .  S
C1108     Br1112   1.929       .  S
C1117      C1118   1.412       .  A
C1117      C1122   1.411       .  A
C1118      C1119   1.408       .  A
C1118     Br1130   1.932       .  S
C1119      C1120   1.409       .  A
C1119     Br1134   1.929       .  S
C1120      C1123   1.491       .  S
C1120      C1121   1.411       .  A
C1121      C1122   1.411       .  A
C1121     Br1129   1.929       .  S
C1122     Br1133   1.929   1_554  S
C1123      C1124   1.407       .  A
C1123      C1128   1.407       .  A
C1124      C1125   1.411       .  A
C1124     Br1135   1.929       .  S
C1125      C1126   1.418       .  A
C1125     Br1131   1.931       .  S
C1126      C1127   1.422       .  A
C1127      C1128   1.410       .  A
C1127     Br1136   1.934       .  S
C1128     Br1132   1.933       .  S
C1137      C1138   1.420       .  A
C1137      C1142   1.423       .  A
C1138      C1139   1.409       .  A
C1138     Br1150   1.927       .  S
C1139      C1140   1.405       .  A
C1139     Br1154   1.933       .  S
C1140      C1143   1.489       .  S
C1140      C1141   1.406       .  A
C1141      C1142   1.411       .  A
C1141     Br1149   1.931       .  S
C1142     Br1153   1.935   1_554  S
C1143      C1144   1.409       .  A
C1143      C1148   1.408       .  A
C1144      C1145   1.408       .  A
C1144     Br1155   1.932       .  S
C1145      C1146   1.413       .  A
C1145     Br1151   1.928       .  S
C1146      C1147   1.415       .  A
C1147      C1148   1.411       .  A
C1147     Br1156   1.930       .  S
C1148     Br1152   1.929       .  S
C1157      C1158   1.409       .  A
C1157      C1162   1.414       .  A
C1158      C1159   1.403       .  A
C1158     Br1170   1.927       .  S
C1159      C1160   1.407       .  A
C1159     Br1174   1.932       .  S
C1160      C1163   1.474       .  S
C1160      C1161   1.405       .  A
C1161      C1162   1.406       .  A
C1161     Br1169   1.931       .  S
C1162     Br1173   1.930       .  S
C1163      C1164   1.406       .  A
C1163      C1168   1.407       .  A
C1164      C1165   1.403       .  A
C1164     Br1175   1.931       .  S
C1165      C1166   1.415       .  A
C1165     Br1171   1.935       .  S
C1166      C1167   1.410       .  A
C1167      C1168   1.402       .  A
C1167     Br1176   1.934       .  S
C1168     Br1172   1.929       .  S
C1177      C1178   1.425       .  A
C1177      C1182   1.418       .  A
C1178      C1179   1.409       .  A
C1178     Br1190   1.935       .  S
C1179      C1180   1.405       .  A
C1179     Br1194   1.933       .  S
C1180      C1183   1.480       .  S
C1180      C1181   1.404       .  A
C1181      C1182   1.404       .  A
C1181     Br1189   1.934       .  S
C1182     Br1193   1.929       .  S
C1183      C1184   1.407       .  A
C1183      C1188   1.409       .  A
C1184      C1185   1.405       .  A
C1184     Br1195   1.931       .  S
C1185      C1186   1.413       .  A
C1185     Br1191   1.932       .  S
C1186      C1187   1.413       .  A
C1187      C1188   1.404       .  A
C1187     Br1196   1.934       .  S
C1188     Br1192   1.930       .  S
C1197      C1198   1.409       .  A
C1197      C1202   1.410       .  A
C1198      C1199   1.407       .  A
C1198     Br1210   1.931       .  S
C1199      C1200   1.410       .  A
C1199     Br1214   1.927       .  S
C1200      C1203   1.489       .  S
C1200      C1201   1.410       .  A
C1201      C1202   1.407       .  A
C1201     Br1209   1.929       .  S
C1202     Br1213   1.930       .  S
C1203      C1204   1.405       .  A
C1203      C1208   1.405       .  A
C1204      C1205   1.411       .  A
C1204     Br1215   1.935       .  S
C1205      C1206   1.424       .  A
C1205     Br1211   1.932       .  S
C1206      C1207   1.428       .  A
C1207      C1208   1.413       .  A
C1207     Br1216   1.935       .  S
C1208     Br1212   1.933       .  S
C1217      C1218   1.422       .  A
C1217      C1222   1.418       .  A
C1218      C1219   1.404       .  A
C1218     Br1230   1.937   1_554  S
C1219      C1220   1.403       .  A
C1219     Br1234   1.929       .  S
C1220      C1223   1.475       .  S
C1220      C1221   1.404       .  A
C1221      C1222   1.404       .  A
C1221     Br1229   1.933       .  S
C1222     Br1233   1.931       .  S
C1223      C1224   1.406       .  A
C1223      C1228   1.406       .  A
C1224      C1225   1.404       .  A
C1224     Br1235   1.932       .  S
C1225      C1226   1.412       .  A
C1225     Br1231   1.928       .  S
C1226      C1227   1.409       .  A
C1227      C1228   1.405       .  A
C1227     Br1236   1.927       .  S
C1228     Br1232   1.929       .  S
C1237      C1238   1.411   1_554  A
C1237      C1242   1.413       .  A
C1238      C1239   1.399   1_556  A
C1238     Br1250   1.931       .  S
C1239      C1240   1.402       .  A
C1239     Br1254   1.931       .  S
C1240      C1243   1.462       .  S
C1240      C1241   1.405       .  A
C1241      C1242   1.402       .  A
C1241     Br1249   1.934       .  S
C1242     Br1253   1.931       .  S
C1243      C1244   1.409       .  A
C1243      C1248   1.401       .  A
C1244      C1245   1.401       .  A
C1244     Br1255   1.928       .  S
C1245      C1246   1.403       .  A
C1245     Br1251   1.929       .  S
C1246      C1247   1.407       .  A
C1247      C1248   1.394       .  A
C1247     Br1256   1.923       .  S
C1248     Br1252   1.930       .  S
C1257      C1258   1.414       .  A
C1257      C1262   1.417       .  A
C1258      C1259   1.405       .  A
C1258     Br1270   1.933       .  S
C1259      C1260   1.408       .  A
C1259     Br1274   1.932       .  S
C1260      C1263   1.480       .  S
C1260      C1261   1.406       .  A
C1261      C1262   1.408       .  A
C1261     Br1269   1.931       .  S
C1262     Br1273   1.931       .  S
C1263      C1264   1.410       .  A
C1263      C1268   1.409       .  A
C1264      C1265   1.402       .  A
C1264     Br1275   1.931       .  S
C1265      C1266   1.408       .  A
C1265     Br1271   1.932       .  S
C1266      C1267   1.408       .  A
C1267      C1268   1.405       .  A
C1267     Br1276   1.932       .  S
C1268     Br1272   1.927       .  S
C1277      C1278   1.413       .  A
C1277      C1282   1.414       .  A
C1278      C1279   1.408       .  A
C1278     Br1290   1.922       .  S
C1279      C1280   1.408       .  A
C1279     Br1294   1.933       .  S
C1280      C1283   1.485       .  S
C1280      C1281   1.408       .  A
C1281      C1282   1.410       .  A
C1281     Br1289   1.930       .  S
C1282     Br1293   1.930       .  S
C1283      C1284   1.411       .  A
C1283      C1288   1.409       .  A
C1284      C1285   1.409       .  A
C1284     Br1295   1.927       .  S
C1285      C1286   1.408       .  A
C1285     Br1291   1.929       .  S
C1286      C1287   1.410       .  A
C1287      C1288   1.405       .  A
C1287     Br1296   1.932       .  S
C1288     Br1292   1.930       .  S
C1297      C1298   1.410       .  A
C1297      C1302   1.412       .  A
C1298      C1299   1.409       .  A
C1298     Br1310   1.929       .  S
C1299      C1300   1.410       .  A
C1299     Br1314   1.928       .  S
C1300      C1303   1.482       .  S
C1300      C1301   1.407       .  A
C1301      C1302   1.404       .  A
C1301     Br1309   1.932       .  S
C1302     Br1313   1.930       .  S
C1303      C1304   1.404       .  A
C1303      C1308   1.402       .  A
C1304      C1305   1.413       .  A
C1304     Br1315   1.934       .  S
C1305      C1306   1.428       .  A
C1305     Br1311   1.934       .  S
C1306      C1307   1.427       .  A
C1307      C1308   1.405       .  A
C1307     Br1316   1.937       .  S
C1308     Br1312   1.936       .  S
C1317      C1318   1.415       .  A
C1317      C1322   1.415       .  A
C1318      C1319   1.405       .  A
C1318     Br1330   1.934       .  S
C1319      C1320   1.407       .  A
C1319     Br1334   1.930       .  S
C1320      C1323   1.481       .  S
C1320      C1321   1.407       .  A
C1321      C1322   1.405       .  A
C1321     Br1329   1.930       .  S
C1322     Br1333   1.935       .  S
C1323      C1324   1.408       .  A
C1323      C1328   1.406       .  A
C1324      C1325   1.407       .  A
C1324     Br1335   1.933       .  S
C1325      C1326   1.412       .  A
C1325     Br1331   1.924       .  S
C1326      C1327   1.414       .  A
C1327      C1328   1.407       .  A
C1327     Br1336   1.930       .  S
C1328     Br1332   1.930       .  S
