geometry optimzed in LAMMPS
_audit_creation_date              2020-12-01 
_audit_creation_method            'lammps2cif' 
_symmetry_space_group_name_H-M    'P1' 
_symmetry_Int_Tables_number       1 
_symmetry_cell_setting            triclinic 
loop_ 
_symmetry_equiv_pos_as_xyz 
  x,y,z 
_cell_length_a                    45.15394016 
_cell_length_b                    43.216126951033765 
_cell_length_c                    43.21883391143515 
_cell_angle_alpha                 89.95439197335257 
_cell_angle_beta                  90.20729525536042 
_cell_angle_gamma                 89.53666531141027 
loop_ 
_atom_site_label 
_atom_site_type_symbol 
_atom_site_fract_x 
_atom_site_fract_y 
_atom_site_fract_z 
_atom_site_charge 
Fe1        Fe  0.11867983  0.61449491  0.25358213     1.65800
Fe2        Fe  0.18965924  0.63914186  0.25192167     1.73200
Fe3        Fe  0.13281574  0.69128455  0.25048376     1.54400
O4          O  0.09692541  0.68102558  0.22137105    -0.81300
O5          O  0.19703654  0.66785321  0.28891408    -0.79600
O6          O  0.09681679  0.62992038  0.21448626    -0.83800
O7          O  0.08932597  0.63810512  0.28157516    -0.78600
O8          O  0.15737369  0.70055979  0.21131883    -0.80400
O9          O  0.18620548  0.60277344  0.28318538    -0.83200
C10         C  0.08940153  0.66359365  0.29611591     0.97600
C11         C  0.08749553  0.65690002  0.20766306     1.05000
O12         O  0.14708255  0.64836109  0.25189590    -1.12100
O13         O  0.18602900  0.60939219  0.21483924    -0.74600
O14         O  0.14377138  0.58572356  0.22585939    -0.78100
O15         O  0.10730065  0.68521877  0.28985959    -0.78700
C16         C  0.16775138  0.58765877  0.21075972     0.96500
O17         O  0.13820489  0.59641278  0.29292596    -0.76700
O18         O  0.19920231  0.67437564  0.22096991    -0.81900
C19         C  0.18839008  0.69542807  0.29363623     0.99100
C20         C  0.18434152  0.69431634  0.20565284     1.05100
O21         O  0.16681304  0.70770170  0.27893603    -0.77500
C22         C  0.16534634  0.59100522  0.29881811     1.03400
Fe23       Fe  0.38388705  0.88184267  0.98995791     1.65800
Fe24       Fe  0.31209600  0.86300696  0.50262762     1.73200
Fe25       Fe  0.36554052  0.80674759  0.50321645     1.54400
O26         O  0.39714100  0.80759966  0.46844521    -0.81300
O27         O  0.30914081  0.84270337  0.04564635    -0.79600
O28         O  0.40293606  0.85686733  0.45489379    -0.83800
O29         O  0.41296398  0.86348446  0.02189722    -0.78600
O30         O  0.33529418  0.79346092  0.46997051    -0.80400
O31         O  0.32052894  0.90498132  0.02458653    -0.83200
C32         C  0.41490686  0.83966368  0.03898602     0.97600
C33         C  0.40837003  0.82830205  0.45141627     1.05000
O34         O  0.35395720  0.85054391  0.49861475    -1.12100
O35         O  0.31218466  0.88410178  0.45963519    -0.74600
O36         O  0.35764391  0.90408464  0.45725524    -0.78100
O37         O  0.39749333  0.81672572  0.03659567    -0.78700
C38         C  0.33134566  0.90130151  0.44696132     0.96500
O39         O  0.36937311  0.91050021  0.02421360    -0.76700
O40         O  0.29632144  0.82318320  0.48149605    -0.81900
C41         C  0.31654278  0.81544235  0.05356428     0.99100
C42         C  0.30806298  0.80049603  0.46734772     1.05100
O43         O  0.33498766  0.79905751  0.03836163    -0.77500
C44         C  0.34389840  0.91894634  0.03278595     1.03400
Fe45       Fe  0.88567644  0.60645640  0.49770317     1.65800
Fe46       Fe  0.81445647  0.63403372  0.50143525     1.73200
Fe47       Fe  0.87224500  0.68433827  0.49639986     1.54400
O48         O  0.90724736  0.67571068  0.02694746    -0.81300
O49         O  0.80481440  0.66197432  0.46367108    -0.79600
O50         O  0.91127710  0.62460496  0.03293692    -0.83800
O51         O  0.91280662  0.62606548  0.46451324    -0.78600
O52         O  0.84759838  0.69870269  0.03387843    -0.80400
O53         O  0.81567364  0.59633993  0.47129028    -0.83200
C54         C  0.91392833  0.65195597  0.45067063     0.97600
C55         C  0.91878281  0.65202140  0.03988995     1.05000
O56         O  0.85745004  0.64163555  0.49850766    -1.12100
O57         O  0.81982201  0.60566085  0.03971453    -0.74600
O58         O  0.86284182  0.58162963  0.03082061    -0.78100
O59         O  0.89815738  0.67502643  0.45836706    -0.78700
C60         C  0.83906473  0.58504146  0.04611072     0.96500
O61         O  0.86303146  0.58458086  0.46243237    -0.76700
O62         O  0.80654216  0.67057271  0.03168344    -0.81900
C63         C  0.81566201  0.68739246  0.45436625     0.99100
C64         C  0.82157618  0.69270819  0.04283914     1.05100
O65         O  0.83924797  0.69865971  0.46573005    -0.77500
C66         C  0.83558360  0.58114306  0.45696906     1.03400
Fe67       Fe  0.60383751  0.87310602  0.24987674     1.65800
Fe68       Fe  0.67885822  0.86140047  0.24436098     1.73200
Fe69       Fe  0.63144372  0.79962474  0.25120723     1.54400
O70         O  0.60476947  0.80318792  0.28987026    -0.81300
O71         O  0.69059884  0.82924358  0.21022695    -0.79600
O72         O  0.58142983  0.84816038  0.28282348    -0.83800
O73         O  0.58228188  0.85014716  0.21485975    -0.78600
O74         O  0.66662020  0.79180288  0.28093974    -0.80400
O75         O  0.66781952  0.89275145  0.20925983    -0.83200
C76         C  0.57974067  0.82167695  0.20828511     0.97600
C77         C  0.58485417  0.82269619  0.29695866     1.05000
O78         O  0.63819479  0.84472449  0.24847885    -1.12100
O79         O  0.67150308  0.89529501  0.27810659    -0.74600
O80         O  0.62252210  0.89915206  0.28483104    -0.78100
O81         O  0.59504047  0.80067941  0.22151289    -0.78700
C82         C  0.64891373  0.90679133  0.29167337     0.96500
O83         O  0.62000606  0.90242640  0.21697969    -0.76700
O84         O  0.69599359  0.83285890  0.27894240    -0.81900
C85         C  0.67996345  0.80360202  0.20091710     0.99100
C86         C  0.68940019  0.80643902  0.28969109     1.05100
O87         O  0.65759998  0.79104509  0.21324103    -0.77500
C88         C  0.64405031  0.90748154  0.20311100     1.03400
Fe89       Fe  0.10158254  0.37949650  0.50382335     1.65800
Fe90       Fe  0.17734661  0.37157201  0.50680182     1.73200
Fe91       Fe  0.13320099  0.30793685  0.49528242     1.54400
O92         O  0.09936033  0.30375291  0.02778620    -0.81300
O93         O  0.19512818  0.34730672  0.47025966    -0.79600
O94         O  0.07966701  0.35081085  0.03347097    -0.83800
O95         O  0.08185782  0.35894613  0.46632513    -0.78600
O96         O  0.16207697  0.29717153  0.03019732    -0.80400
O97         O  0.16819145  0.40786303  0.47619318    -0.83200
C98         C  0.08496055  0.33377608  0.45164590     0.97600
C99         C  0.08089623  0.32230936  0.04010348     1.05000
O100        O  0.13743566  0.35300235  0.00195141    -1.12100
O101        O  0.16521230  0.39841243  0.04410554    -0.74600
O102        O  0.11614608  0.40360797  0.04184952    -0.78100
O103        O  0.10377158  0.31318675  0.45907051    -0.78700
C104        C  0.14093972  0.40913438  0.05432167     0.96500
O105        O  0.11889945  0.41156002  0.47427571    -0.76700
O106        O  0.19152667  0.33768680  0.03797683    -0.81900
C107        C  0.18923520  0.32237633  0.45623555     0.99100
C108        C  0.18333700  0.31022058  0.04396135     1.05100
O109        O  0.16688950  0.30589744  0.46273934    -0.77500
C110        C  0.14438868  0.42038628  0.46621866     1.03400
Fe111      Fe  0.36925443  0.10402397  0.24361441     1.65800
Fe112      Fe  0.36021216  0.18175808  0.25780990     1.73200
Fe113      Fe  0.29991707  0.13554828  0.24603828     1.54400
O114        O  0.30151973  0.10452739  0.20980546    -0.81300
O115        O  0.33130093  0.19199417  0.29375787    -0.79600
O116        O  0.34856851  0.09056138  0.20330948    -0.83800
O117        O  0.34271307  0.07553106  0.27005743    -0.78600
O118        O  0.29645064  0.17089896  0.21391461    -0.80400
O119        O  0.38999222  0.16452750  0.29026290    -0.83200
C120        C  0.31773856  0.07795033  0.28333821     0.97600
C121        C  0.32161883  0.09046159  0.19497111     1.05000
O122        O  0.34318146  0.14051162  0.24922951    -1.12100
O123        O  0.39078663  0.17770005  0.22242841    -0.74600
O124        O  0.39949465  0.12724126  0.21661986    -0.78100
O125        O  0.29989271  0.10022752  0.27828228    -0.78700
C126        C  0.40446237  0.15528634  0.20987755     0.96500
O127        O  0.39293057  0.11342071  0.28315208    -0.76700
O128        O  0.33260908  0.20368603  0.22647709    -0.81900
C129        C  0.30440870  0.18490308  0.29813346     0.99100
C130        C  0.31000625  0.19640180  0.21064021     1.05100
O131        O  0.29093834  0.16537070  0.28165029    -0.77500
C132        C  0.39978023  0.13783716  0.29763621     1.03400
Fe133      Fe  0.60277114  0.11284392  0.50238470     1.65800
Fe134      Fe  0.61648641  0.19036919  0.00162668     1.73200
Fe135      Fe  0.67428474  0.13861061  0.99636965     1.54400
O136        O  0.67378043  0.10271216  0.02836911    -0.81300
O137        O  0.64062490  0.20360744  0.46335525    -0.79600
O138        O  0.62656936  0.09070538  0.03694743    -0.83800
O139        O  0.62395038  0.08725848  0.46875988    -0.78600
O140        O  0.68512174  0.16874834  0.03241749    -0.80400
O141        O  0.58121827  0.18215368  0.47245885    -0.83200
C142        C  0.64808527  0.08798548  0.45383612     0.97600
C143        C  0.65406910  0.08751203  0.04257986     1.05000
O144        O  0.63124721  0.14726498  0.00005100    -1.12100
O145        O  0.59105909  0.18244072  0.04052491    -0.74600
O146        O  0.57710916  0.13332942  0.03622139    -0.78100
O147        O  0.66838063  0.10737012  0.45992997    -0.78700
C148        C  0.57588032  0.15954574  0.04932796     0.96500
O149        O  0.57585466  0.13112607  0.46814497    -0.76700
O150        O  0.64937848  0.20461897  0.03093810    -0.81900
C151        C  0.66607914  0.19619516  0.45330642     0.99100
C152        C  0.67355431  0.19409397  0.04160572     1.05100
O153        O  0.68089523  0.17339621  0.46399897    -0.77500
C154        C  0.56874371  0.15867939  0.46088527     1.03400
Fe155      Fe  0.88734738  0.37150395  0.24573518     1.65800
Fe156      Fe  0.81311327  0.35511523  0.25046204     1.73200
Fe157      Fe  0.86517050  0.29658299  0.25034740     1.54400
O158        O  0.89728001  0.29960557  0.21616358    -0.81300
O159        O  0.80263896  0.32656734  0.28749244    -0.79600
O160        O  0.90739418  0.34950207  0.20912602    -0.83800
O161        O  0.91443578  0.34862541  0.27673723    -0.78600
O162        O  0.83567326  0.28641063  0.21598014    -0.80400
O163        O  0.82197207  0.39079664  0.28249883    -0.83200
C164        C  0.91407861  0.32312797  0.29122538     0.97600
C165        C  0.91049591  0.32120456  0.20202259     1.05000
O166        O  0.85509512  0.34107668  0.24882610    -1.12100
O167        O  0.81790113  0.38484415  0.21332366    -0.74600
O168        O  0.86508855  0.39940287  0.21443081    -0.78100
O169        O  0.89563542  0.30201535  0.28542637    -0.78700
C170        C  0.83902505  0.40125779  0.20352186     0.96500
O171        O  0.87113143  0.39625480  0.28222619    -0.76700
O172        O  0.79926248  0.32160886  0.21854555    -0.81900
C173        C  0.81223094  0.30026995  0.29633041     0.99100
C174        C  0.81095441  0.29723445  0.20707111     1.05100
O175        O  0.83440345  0.28700307  0.28408860    -0.77500
C176        C  0.84577184  0.40287559  0.29281864     1.03400
C177        C  0.75576089  0.26736250  0.14549720     0.19100
C178        C  0.72482255  0.26573423  0.14353201    -0.19000
C179        C  0.71126748  0.24643722  0.12176450    -0.11300
C180        C  0.72844663  0.22870216  0.10100064     0.21300
C181        C  0.75936967  0.23069516  0.10270321    -0.20600
C182        C  0.77290578  0.24999158  0.12443446    -0.11500
C183        C  0.71487894  0.20784680  0.07750907    -0.15600
C184        C  0.68771330  0.21309520  0.06581005    -0.29500
C185        C  0.76955768  0.28686550  0.16997349    -0.03700
C186        C  0.79613579  0.27970868  0.18221362    -0.40300
H187        H  0.71110066  0.27882149  0.15942442     0.12500
H188        H  0.68737004  0.24500069  0.12184452     0.12100
H189        H  0.77312364  0.21751452  0.08691600     0.11600
H190        H  0.79681171  0.25139336  0.12442174     0.11800
H191        H  0.72809250  0.18878413  0.06848633     0.14500
H192        H  0.67528168  0.23333650  0.07326450     0.13300
H193        H  0.75701613  0.30630685  0.17921704     0.11000
H194        H  0.80776756  0.25914243  0.17425519     0.13000
C195        C  0.75475750  0.27210022  0.35629845     0.19100
C196        C  0.72375301  0.27411542  0.35817570    -0.19000
C197        C  0.70801590  0.25540509  0.37881818    -0.11300
C198        C  0.72308547  0.23440132  0.39839946     0.21300
C199        C  0.75412454  0.23293974  0.39691327    -0.20600
C200        C  0.76979659  0.25161731  0.37636442    -0.11500
C201        C  0.70781153  0.21346656  0.42063615    -0.15600
C202        C  0.67906379  0.21578503  0.42874117    -0.29500
C203        C  0.77062896  0.29134536  0.33303407    -0.03700
C204        C  0.79734033  0.28338258  0.32159079    -0.40300
H205        H  0.71158408  0.28977536  0.34312756     0.12500
H206        H  0.68414830  0.25724789  0.37880069     0.12100
H207        H  0.76641944  0.21730166  0.41187884     0.11600
H208        H  0.79370337  0.25004567  0.37659727     0.11800
H209        H  0.72143765  0.19596247  0.43200258     0.14500
H210        H  0.66499957  0.23372074  0.41892204     0.13300
H211        H  0.75915073  0.31142425  0.32352508     0.11000
H212        H  0.80811939  0.26221747  0.32932293     0.13000
C213        C  0.50949322  0.15158430  0.10367961     0.19100
C214        C  0.47910248  0.15698221  0.09925437    -0.19000
C215        C  0.45959255  0.15578139  0.12429445    -0.11300
C216        C  0.47010954  0.14809933  0.15398155     0.21300
C217        C  0.50049125  0.14256121  0.15836666    -0.20600
C218        C  0.52014375  0.14481407  0.13351549    -0.11500
C219        C  0.44935432  0.14298948  0.17987671    -0.15600
C220        C  0.42649552  0.16219177  0.18573459    -0.29500
C221        C  0.52931383  0.15000984  0.07656941    -0.03700
C222        C  0.55606065  0.16338924  0.07609461    -0.40300
H223        H  0.47044502  0.16179749  0.07632521     0.12500
H224        H  0.43615073  0.15949077  0.12023004     0.12100
H225        H  0.50894929  0.13620302  0.18100186     0.11600
H226        H  0.54343513  0.13991624  0.13731603     0.11800
H227        H  0.45328619  0.12310591  0.19479983     0.14500
H228        H  0.42400346  0.18351531  0.17260327     0.13300
H229        H  0.52135287  0.13801899  0.05609344     0.11000
H230        H  0.56307150  0.17794496  0.09520946     0.13000
C231        C  0.50274228  0.14726936  0.40520078     0.19100
C232        C  0.48081098  0.12461656  0.40251427    -0.19000
C233        C  0.45735647  0.12837964  0.38165827    -0.11300
C234        C  0.45557787  0.15482741  0.36272479     0.21300
C235        C  0.47703429  0.17785704  0.36592602    -0.20600
C236        C  0.50057065  0.17405094  0.38668724    -0.11500
C237        C  0.43224413  0.15865561  0.33878052    -0.15600
C238        C  0.42047660  0.13438905  0.32385451    -0.29500
C239        C  0.52777596  0.14168907  0.42695031    -0.03700
C240        C  0.54480604  0.16441799  0.43828838    -0.40300
H241        H  0.48183805  0.10388850  0.41660828     0.12500
H242        H  0.44069094  0.11056657  0.38046339     0.12100
H243        H  0.47612417  0.19840815  0.35156714     0.11600
H244        H  0.51731089  0.19176789  0.38738018     0.11800
H245        H  0.42650348  0.18200509  0.33141673     0.14500
H246        H  0.42757232  0.11103092  0.32967269     0.13300
H247        H  0.53156566  0.11809626  0.43485580     0.11000
H248        H  0.54040681  0.18834344  0.43212059     0.13000
C249        C  0.01349393  0.31862712  0.09330077     0.19100
C250        C  0.98272681  0.31670152  0.08909319    -0.19000
C251        C  0.96363893  0.31798165  0.11452185    -0.11300
C252        C  0.97505798  0.32227941  0.14447660     0.21300
C253        C  0.00582724  0.32375109  0.14872279    -0.20600
C254        C  0.02494872  0.32144504  0.12341866    -0.11500
C255        C  0.95526397  0.32871239  0.17096275    -0.15600
C256        C  0.93019272  0.31300958  0.17608216    -0.29500
C257        C  0.03281437  0.32291470  0.06607779    -0.01300
C258        C  0.06032988  0.31093395  0.06392924    -0.40300
H259        H  0.97344018  0.31513694  0.06600459     0.12500
H260        H  0.93994921  0.31741486  0.11059794     0.12100
H261        H  0.01502616  0.32743652  0.17159897     0.11600
H262        H  0.04854066  0.32383049  0.12720366     0.11800
H263        H  0.96198726  0.34648546  0.18727919     0.14500
H264        H  0.92466800  0.29323744  0.16172753     0.13300
H265        H  0.02453271  0.33789274  0.04770062     0.11000
H266        H  0.06822121  0.29400872  0.08069082     0.13000
C267        C  0.01895410  0.33658348  0.39626841     0.19100
C268        C  0.98843090  0.33336228  0.40081983    -0.19000
C269        C  0.96927224  0.33148120  0.37549758    -0.11300
C270        C  0.98039748  0.33358844  0.34525692     0.21300
C271        C  0.01088940  0.33714788  0.34072948    -0.20600
C272        C  0.03013174  0.33823547  0.36603782    -0.11500
C273        C  0.96031526  0.33503833  0.31834326    -0.15600
C274        C  0.93549243  0.31825724  0.31648341    -0.29500
C275        C  0.03847046  0.34054036  0.42331968    -0.03700
C276        C  0.06581512  0.32823769  0.42474026    -0.40300
H277        H  0.97942155  0.33251990  0.42400435     0.12500
H278        H  0.94571043  0.32962043  0.37959059     0.12100
H279        H  0.01976012  0.33934763  0.31757975     0.11600
H280        H  0.05355185  0.34152343  0.36201128     0.11800
H281        H  0.96619852  0.35043506  0.29946863     0.14500
H282        H  0.93063798  0.30099568  0.33400187     0.13300
H283        H  0.02971951  0.35318602  0.44306609     0.11000
H284        H  0.07377521  0.31310393  0.40645298     0.13000
C285        C  0.26580164  0.23596991  0.14516498     0.19100
C286        C  0.25254015  0.22513707  0.11797178    -0.19000
C287        C  0.23969964  0.24577703  0.09696857    -0.11300
C288        C  0.23930037  0.27777816  0.10305100     0.21300
C289        C  0.25339135  0.28879642  0.12974880    -0.20600
C290        C  0.26636564  0.26808077  0.15081182    -0.11500
C291        C  0.22378525  0.29969594  0.08197844    -0.15600
C292        C  0.19890333  0.29129123  0.06725911    -0.29500
C293        C  0.27741093  0.21299268  0.16769224    -0.03700
C294        C  0.29924841  0.21923417  0.18781439    -0.40300
H295        H  0.25201871  0.20057431  0.11300982     0.12500
H296        H  0.22998535  0.23658123  0.07600511     0.12100
H297        H  0.25347708  0.31334173  0.13480617     0.11600
H298        H  0.27587156  0.27723776  0.17187409     0.11800
H299        H  0.23243377  0.32290226  0.07909460     0.14500
H300        H  0.18961997  0.26861582  0.07176782     0.13300
H301        H  0.26813210  0.18986620  0.16709356     0.11000
H302        H  0.30999346  0.24160816  0.18739808     0.13000
C303        C  0.27023346  0.24425159  0.35415031     0.19100
C304        C  0.27984162  0.26513016  0.37682422    -0.19000
C305        C  0.25939563  0.27956916  0.39656344    -0.11300
C306        C  0.22884229  0.27366388  0.39361070     0.21300
C307        C  0.21926574  0.25368996  0.37018860    -0.20600
C308        C  0.23960534  0.23941959  0.35047750    -0.11500
C309        C  0.20652260  0.28602674  0.41569813    -0.15600
C310        C  0.21026727  0.31210619  0.43211107    -0.29500
C311        C  0.29221115  0.22802003  0.33419231    -0.03700
C312        C  0.28675090  0.19975711  0.32263632    -0.40300
H313        H  0.30325114  0.26954597  0.37987014     0.12500
H314        H  0.26772472  0.29439077  0.41471347     0.12100
H315        H  0.19590057  0.24893932  0.36723898     0.11600
H316        H  0.23117831  0.22462306  0.33234257     0.11800
H317        H  0.18618893  0.27304110  0.41851092     0.14500
H318        H  0.22976186  0.32615722  0.42844257     0.13300
H319        H  0.31270434  0.23967300  0.32844216     0.11000
H320        H  0.26661253  0.18789787  0.32920016     0.13000
C321        C  0.66248197  0.97452181  0.14740142     0.19100
C322        C  0.68221680  0.98034481  0.12308052    -0.19000
C323        C  0.67736324  0.00541874  0.10291927    -0.11300
C324        C  0.65278787  0.02529711  0.10704544     0.21300
C325        C  0.63389978  0.02015589  0.13213938    -0.20600
C326        C  0.63882176  0.99536985  0.15225979    -0.11500
C327        C  0.64456092  0.05002933  0.08457715    -0.15600
C328        C  0.66390274  0.06458108  0.06606958    -0.29500
C329        C  0.66647446  0.94668746  0.16749213    -0.03700
C330        C  0.64288993  0.93218468  0.17949903    -0.40300
H331        H  0.70079195  0.96487434  0.11904393     0.12500
H332        H  0.69217091  0.00840969  0.08354360     0.12100
H333        H  0.61498922  0.03523630  0.13602204     0.11600
H334        H  0.62387189  0.99250754  0.17154893     0.11800
H335        H  0.62132821  0.05676922  0.08354016     0.14500
H336        H  0.68742882  0.05952375  0.06794199     0.13300
H337        H  0.68870663  0.93821693  0.17244232     0.11000
H338        H  0.62081643  0.94018933  0.17316566     0.13000
C339        C  0.63310578  0.01927747  0.39756206     0.19100
C340        C  0.65937328  0.01051838  0.38224783    -0.19000
C341        C  0.65929898  0.98625276  0.36050121    -0.11300
C342        C  0.63295376  0.97023808  0.35368012     0.21300
C343        C  0.60693513  0.97916745  0.36905020    -0.20600
C344        C  0.60703036  0.00315100  0.39066226    -0.11500
C345        C  0.63071478  0.94496857  0.33015956    -0.15600
C346        C  0.65366747  0.93060790  0.31605077    -0.29500
C347        C  0.63135748  0.04410096  0.42158270    -0.03700
C348        C  0.65259643  0.06491519  0.42859717    -0.40300
H349        H  0.68003032  0.02205164  0.38707787     0.12500
H350        H  0.67981076  0.98047919  0.34898712     0.12100
H351        H  0.58626116  0.96748834  0.36433392     0.11600
H352        H  0.58643748  0.00916495  0.40205124     0.11800
H353        H  0.60843176  0.93777939  0.32406039     0.14500
H354        H  0.67628458  0.93664317  0.32177663     0.13300
H355        H  0.61067964  0.04531979  0.43433756     0.11000
H356        H  0.67337290  0.06508291  0.41610904     0.13000
C357        C  0.84383197  0.47195140  0.14980278     0.19100
C358        C  0.84619733  0.50384849  0.15528557    -0.19000
C359        C  0.84510573  0.52493559  0.13069273    -0.11300
C360        C  0.84247135  0.51430069  0.10009909     0.21300
C361        C  0.83997224  0.48242806  0.09465419    -0.20600
C362        C  0.84023357  0.46142723  0.11928661    -0.11500
C363        C  0.84546487  0.53552831  0.07340367    -0.15600
C364        C  0.83383026  0.56426984  0.07266555    -0.29500
C365        C  0.84799948  0.44996742  0.17579627    -0.03700
C366        C  0.83306676  0.42327224  0.17810333    -0.40300
H367        H  0.84935039  0.51239952  0.17861332     0.12500
H368        H  0.84774745  0.54935050  0.13547188     0.12100
H369        H  0.83832418  0.47373854  0.07120893     0.11600
H370        H  0.83903310  0.43691291  0.11433543     0.11800
H371        H  0.85719605  0.52681999  0.05323907     0.14500
H372        H  0.81982969  0.57235137  0.09143419     0.13300
H373        H  0.86344478  0.45632195  0.19403013     0.11000
H374        H  0.81559303  0.41796987  0.16164333     0.13000
C375        C  0.82805553  0.47092553  0.34819788     0.19100
C376        C  0.80506999  0.48114557  0.36760439    -0.19000
C377        C  0.81003308  0.50452453  0.38965224    -0.11300
C378        C  0.83810414  0.51842103  0.39236535     0.21300
C379        C  0.86059870  0.50890132  0.37212572    -0.20600
C380        C  0.85563518  0.48580707  0.35020444    -0.11500
C381        C  0.84575022  0.54186282  0.41644563    -0.15600
C382        C  0.82605961  0.55841546  0.43316251    -0.29500
C383        C  0.82329428  0.44494994  0.32586018    -0.03700
C384        C  0.84577228  0.42579104  0.31823182    -0.40300
H385        H  0.78350702  0.47041950  0.36630807     0.12500
H386        H  0.79210696  0.51092902  0.40492992     0.12100
H387        H  0.88230458  0.51935699  0.37331063     0.11600
H388        H  0.87356928  0.47975146  0.33475587     0.11800
H389        H  0.86919375  0.54606829  0.42019655     0.14500
H390        H  0.80248365  0.55560728  0.42936134     0.13300
H391        H  0.80159988  0.44193187  0.31540587     0.11000
H392        H  0.86696502  0.42857192  0.32982509     0.13000
C393        C  0.75731881  0.71502444  0.39356483     0.19100
C394        C  0.72745750  0.70772510  0.38845716    -0.19000
C395        C  0.71044904  0.72405015  0.36670541    -0.11300
C396        C  0.72273478  0.74824730  0.34939782     0.21300
C397        C  0.75281516  0.75536390  0.35402685    -0.20600
C398        C  0.76991722  0.73892935  0.37581945    -0.11500
C399        C  0.70358147  0.76428926  0.32603214    -0.15600
C400        C  0.70937319  0.79208297  0.31316145    -0.29500
C401        C  0.77426201  0.69672152  0.41720973    -0.03700
C402        C  0.80043986  0.70527673  0.42953322    -0.40300
H403        H  0.71712601  0.68933185  0.40148717     0.12500
H404        H  0.68746864  0.71776008  0.36346693     0.12100
H405        H  0.76346848  0.77311113  0.34050151     0.11600
H406        H  0.79303316  0.74478457  0.37816178     0.11800
H407        H  0.68318177  0.75272206  0.31960207     0.14500
H408        H  0.72896207  0.80480257  0.31990704     0.13300
H409        H  0.76400295  0.67575291  0.42581139     0.11000
H410        H  0.81072822  0.72666372  0.42233241     0.13000
C411        C  0.73521602  0.77329302  0.13929768     0.19100
C412        C  0.76623715  0.77340813  0.13735519    -0.19000
C413        C  0.78116599  0.75357333  0.11693175    -0.11300
C414        C  0.76528456  0.73338243  0.09748891     0.21300
C415        C  0.73422022  0.73376400  0.09903560    -0.20600
C416        C  0.71932824  0.75354771  0.11946145    -0.11500
C417        C  0.77988882  0.71150162  0.07542224    -0.15600
C418        C  0.80849176  0.71314845  0.06676432    -0.29500
C419        C  0.72028841  0.79343574  0.16269647    -0.03700
C420        C  0.69381346  0.78646035  0.17500557    -0.40300
H421        H  0.77905137  0.78837193  0.15229114     0.12500
H422        H  0.80507768  0.75388561  0.11708227     0.12100
H423        H  0.72133080  0.71874184  0.08422683     0.11600
H424        H  0.69538250  0.75338506  0.11939495     0.11800
H425        H  0.76601765  0.69401820  0.06476018     0.14500
H426        H  0.82264547  0.73108371  0.07595116     0.13300
H427        H  0.73242915  0.81304484  0.17182964     0.11000
H428        H  0.68245491  0.76573536  0.16750546     0.13000
C429        C  0.31854463  0.98934775  0.08047362     0.19100
C430        C  0.29726544  0.99421657  0.10353278    -0.19000
C431        C  0.30062469  0.01830608  0.12488775    -0.11300
C432        C  0.32522013  0.03810655  0.12315028     0.21300
C433        C  0.34523150  0.03449089  0.09872406    -0.20600
C434        C  0.34179278  0.01060907  0.07739784    -0.11500
C435        C  0.33271734  0.06019213  0.14813770    -0.15600
C436        C  0.31270271  0.07239328  0.16759809    -0.29500
C437        C  0.31741093  0.96104968  0.06108929    -0.03700
C438        C  0.34252911  0.94653867  0.05262876    -0.40300
H439        H  0.27901037  0.97832276  0.10611916     0.12500
H440        H  0.28494077  0.02011462  0.14366714     0.12100
H441        H  0.36415556  0.04961021  0.09670812     0.11600
H442        H  0.35789892  0.00827726  0.05903670     0.11800
H443        H  0.35593975  0.06602363  0.15106282     0.14500
H444        H  0.28923130  0.06849945  0.16393747     0.13300
H445        H  0.29604522  0.95129308  0.05510500     0.11000
H446        H  0.36370437  0.95560585  0.06026326     0.13000
C447        C  0.32071527  0.00585050  0.33510560     0.19100
C448        C  0.32318916  0.97368853  0.33103368    -0.19000
C449        C  0.32578920  0.95397444  0.35667487    -0.11300
C450        C  0.32682475  0.96634863  0.38669898     0.21300
C451        C  0.32373407  0.99836272  0.39077122    -0.20600
C452        C  0.32031687  0.01793685  0.36528427    -0.11500
C453        C  0.33455636  0.94701683  0.41378931    -0.15600
C454        C  0.32270124  0.91915132  0.41921005    -0.29500
C455        C  0.32287000  0.02667486  0.30795899    -0.03700
C456        C  0.30978632  0.05473621  0.30688162    -0.40300
H457        H  0.32398735  0.96393069  0.30796847     0.12500
H458        H  0.32867969  0.92935455  0.35298304     0.12100
H459        H  0.32480987  0.00832796  0.41374208     0.11600
H460        H  0.31925585  0.04265765  0.36919494     0.11800
H461        H  0.34958620  0.95687999  0.43077708     0.14500
H462        H  0.30551805  0.91024342  0.40406039     0.13300
H463        H  0.33691994  0.01926368  0.28893704     0.11000
H464        H  0.29395340  0.06143349  0.32456923     0.13000
C465        C  0.52214913  0.82605258  0.14208673     0.19100
C466        C  0.51908415  0.84622294  0.11690162    -0.19000
C467        C  0.49655722  0.84215401  0.09520167    -0.11300
C468        C  0.47575424  0.81827997  0.09866869     0.21300
C469        C  0.47954700  0.79719456  0.12315259    -0.20600
C470        C  0.50251260  0.80104548  0.14478012    -0.11500
C471        C  0.44994393  0.81541410  0.07721317    -0.15600
C472        C  0.43867426  0.84028699  0.06243119    -0.29500
C473        C  0.54472170  0.83344647  0.16594773    -0.03700
C474        C  0.55786666  0.81239428  0.18450370    -0.40300
H475        H  0.53414095  0.86541179  0.11407911     0.12500
H476        H  0.49557423  0.85794912  0.07580218     0.12100
H477        H  0.46413454  0.77836034  0.12614038     0.11600
H478        H  0.50406875  0.78523576  0.16415316     0.11800
H479        H  0.43992222  0.79288373  0.07388605     0.14500
H480        H  0.44794854  0.86294729  0.06683815     0.13300
H481        H  0.55140874  0.85750058  0.16765783     0.11000
H482        H  0.55297022  0.78797857  0.18192068     0.13000
C483        C  0.47441553  0.82905959  0.39606268     0.19100
C484        C  0.50435449  0.83591506  0.40107664    -0.19000
C485        C  0.52496098  0.83237788  0.37728708    -0.11300
C486        C  0.51572685  0.82277311  0.34779222     0.21300
C487        C  0.48582350  0.81561028  0.34283168    -0.20600
C488        C  0.46534473  0.81825542  0.36692241    -0.11500
C489        C  0.53606917  0.82423421  0.32114981    -0.15600
C490        C  0.56479664  0.81598508  0.32283418    -0.29500
C491        C  0.45272678  0.83656426  0.42048420    -0.03700
C492        C  0.42913705  0.81894833  0.42687672    -0.40300
H493        H  0.51167682  0.84465007  0.42329220     0.12500
H494        H  0.54775581  0.83880586  0.38147600     0.12100
H495        H  0.47821632  0.80867008  0.32008965     0.11600
H496        H  0.44224299  0.81346026  0.36232779     0.11800
H497        H  0.52716069  0.83307127  0.29943082     0.14500
H498        H  0.57356626  0.80455118  0.34334002     0.13300
H499        H  0.45697404  0.85692412  0.43454965     0.11000
H500        H  0.42606851  0.79692779  0.41524160     0.13000
C501        C  0.16522249  0.46492153  0.11841279     0.19100
C502        C  0.18695998  0.48789698  0.11936548    -0.19000
C503        C  0.18547839  0.51159671  0.14134230    -0.11300
C504        C  0.16223059  0.51247209  0.16297952     0.21300
C505        C  0.14135461  0.48858390  0.16280772    -0.20600
C506        C  0.14282911  0.46502473  0.14088070    -0.11500
C507        C  0.15818027  0.53769171  0.18589994    -0.15600
C508        C  0.17460598  0.56351914  0.18769061    -0.29500
C509        C  0.16592280  0.44167452  0.09328397    -0.03700
C510        C  0.14099540  0.42947404  0.08156197    -0.40300
H511        H  0.20464532  0.48800810  0.10249351     0.12500
H512        H  0.20239726  0.52909986  0.14088070     0.12100
H513        H  0.12349600  0.48833969  0.17948382     0.11600
H514        H  0.12634762  0.44700001  0.14157064     0.11800
H515        H  0.13994607  0.53499920  0.20201689     0.14500
H516        H  0.19322796  0.56726840  0.17246119     0.13300
H517        H  0.18708115  0.43652722  0.08245246     0.11000
H518        H  0.11957124  0.43633046  0.09072399     0.13000
C519        C  0.16005970  0.53522813  0.36856060     0.19100
C520        C  0.13993667  0.53225022  0.39296863    -0.19000
C521        C  0.14367334  0.50910368  0.41519278    -0.11300
C522        C  0.16738732  0.48786423  0.41318237     0.21300
C523        C  0.18842559  0.49173125  0.38972612    -0.20600
C524        C  0.18473875  0.51506300  0.36743443    -0.11500
C525        C  0.16957251  0.46087027  0.43450017    -0.15600
C526        C  0.14499422  0.44676990  0.44459005    -0.29500
C527        C  0.15318913  0.55807641  0.34375892    -0.03700
C528        C  0.17347510  0.56975096  0.32436662    -0.40300
H529        H  0.12092618  0.54761840  0.39458317     0.12500
H530        H  0.12764972  0.50759459  0.43368882     0.12100
H531        H  0.20698904  0.47582165  0.38783001     0.11600
H532        H  0.20052763  0.51627725  0.34873148     0.11800
H533        H  0.19127244  0.45168930  0.44066630     0.14500
H534        H  0.12350880  0.45510224  0.43664589     0.13300
H535        H  0.13029216  0.56576640  0.34156322     0.11000
H536        H  0.19670943  0.56373733  0.32714086     0.13000
C537        C  0.02737591  0.63727745  0.14579329     0.19100
C538        C  0.01680660  0.66483221  0.13198828    -0.19000
C539        C  0.99362569  0.66415624  0.11014484    -0.11300
C540        C  0.98046031  0.63590098  0.10158390     0.21300
C541        C  0.99117406  0.60859161  0.11541473    -0.20600
C542        C  0.01421909  0.60926198  0.13707372    -0.11500
C543        C  0.95617676  0.63312307  0.07803417    -0.15600
C544        C  0.94210492  0.65693294  0.06380712    -0.29500
C545        C  0.05201659  0.63600354  0.16905907    -0.03700
C546        C  0.06436242  0.66060959  0.18326355    -0.40300
H547        H  0.02646102  0.68693756  0.13757048     0.12500
H548        H  0.98648917  0.68580056  0.09994996     0.12100
H549        H  0.98170721  0.58643665  0.10936901     0.11600
H550        H  0.02178324  0.58761243  0.14712795     0.11800
H551        H  0.94955243  0.60976628  0.07197610     0.14500
H552        H  0.94774370  0.68062275  0.06930093     0.13300
H553        H  0.05984219  0.61305397  0.17560243     0.11000
H554        H  0.05683138  0.68389997  0.17798746     0.13000
C555        C  0.02170696  0.65140176  0.34793521     0.19100
C556        C  0.03180834  0.64787222  0.37851783    -0.19000
C557        C  0.01155938  0.64405675  0.40264525    -0.11300
C558        C  0.98098357  0.64461605  0.39668776     0.21300
C559        C  0.97093532  0.64850934  0.36611116    -0.20600
C560        C  0.99117628  0.65142049  0.34192126    -0.11500
C561        C  0.95995595  0.63991933  0.42245691    -0.15600
C562        C  0.93428989  0.65573963  0.42439342    -0.29500
C563        C  0.04254822  0.65153254  0.32167422    -0.03700
C564        C  0.06800131  0.66752073  0.32158756    -0.40300
H565        H  0.05530546  0.64691899  0.38357609     0.12500
H566        H  0.01974929  0.64073664  0.42601405     0.12100
H567        H  0.94748679  0.64831757  0.36078931     0.11600
H568        H  0.98300770  0.65348223  0.31840162     0.11800
H569        H  0.96654573  0.62453291  0.44121060     0.14500
H570        H  0.92897968  0.67338483  0.40728115     0.13300
H571        H  0.03648516  0.63801278  0.30144365     0.11000
H572        H  0.07321476  0.68317143  0.34045932     0.13000
C573        C  0.24428174  0.73065269  0.15462955     0.19100
C574        C  0.26831324  0.74984531  0.16163285    -0.19000
C575        C  0.28425503  0.76411860  0.13795601    -0.11300
C576        C  0.27693450  0.75856050  0.10686419     0.21300
C577        C  0.25330601  0.73886599  0.09984602    -0.20600
C578        C  0.23679719  0.72535774  0.12352017    -0.11500
C579        C  0.29427363  0.77210188  0.08134097    -0.15600
C580        C  0.30233132  0.80195868  0.08101953    -0.29500
C581        C  0.22860671  0.71478707  0.18002773    -0.03700
C582        C  0.19908453  0.71082528  0.18015974    -0.40300
H583        H  0.27466188  0.75386760  0.18548138     0.12500
H584        H  0.30273881  0.77881422  0.14388014     0.12100
H585        H  0.24752657  0.73409404  0.07598005     0.11600
H586        H  0.21878764  0.71007002  0.11751693     0.11800
H587        H  0.29816430  0.75788649  0.06098384     0.14500
H588        H  0.29566496  0.81724204  0.09973941     0.13300
H589        H  0.24168406  0.70723779  0.19985301     0.11000
H590        H  0.18549105  0.72076012  0.16182759     0.13000
C591        C  0.24077787  0.71999262  0.35938554     0.19100
C592        C  0.24349156  0.71096884  0.39046566    -0.19000
C593        C  0.26177596  0.72741013  0.41071208    -0.11300
C594        C  0.27844383  0.75242916  0.39984338     0.21300
C595        C  0.27635209  0.76098560  0.36860993    -0.20600
C596        C  0.25729920  0.74520652  0.34859663    -0.11500
C597        C  0.29853879  0.76942395  0.42071612    -0.15600
C598        C  0.28883984  0.78163713  0.44738846    -0.29500
C599        C  0.22227258  0.70148558  0.33809896    -0.03700
C600        C  0.20471101  0.71440277  0.31634402    -0.40300
H601        H  0.23126941  0.69131791  0.39909570     0.12500
H602        H  0.26341601  0.72022756  0.43467973     0.12100
H603        H  0.28923680  0.78009160  0.35981901     0.11600
H604        H  0.25610388  0.75212541  0.32453150     0.11800
H605        H  0.32088575  0.77418213  0.41286484     0.14500
H606        H  0.26561353  0.77961400  0.45353931     0.13300
H607        H  0.22264112  0.67649253  0.34093638     0.11000
H608        H  0.20248309  0.73942355  0.31502879     0.13000
Fe609      Fe  0.11866112  0.61449111  0.75355969     1.65800
Fe610      Fe  0.18963179  0.63916935  0.75192317     1.73200
Fe611      Fe  0.13276471  0.69129138  0.75044179     1.54400
O612        O  0.09691727  0.68100961  0.72127892    -0.81300
O613        O  0.19697681  0.66788976  0.78891629    -0.79600
O614        O  0.09680535  0.62989484  0.71445528    -0.83800
O615        O  0.08927528  0.63808284  0.78153266    -0.78600
O616        O  0.15736325  0.70058622  0.71130725    -0.80400
O617        O  0.18618051  0.60279896  0.78318176    -0.83200
C618        C  0.08931319  0.66358643  0.79604617     0.97600
C619        C  0.08749116  0.65686793  0.70759647     1.05000
O620        O  0.14704919  0.64837287  0.75187539    -1.12100
O621        O  0.18603096  0.60941282  0.71484109    -0.74600
O622        O  0.14377811  0.58573149  0.72585217    -0.78100
O623        O  0.10719846  0.68522336  0.78978463    -0.78700
C624        C  0.16776049  0.58767287  0.71075793     0.96500
O625        O  0.13818052  0.59642514  0.79291283    -0.76700
O626        O  0.19918540  0.67440096  0.72097712    -0.81900
C627        C  0.18830593  0.69545591  0.79364481     0.99100
C628        C  0.18433437  0.69434496  0.70565629     1.05100
O629        O  0.16672429  0.70771770  0.77894037    -0.77500
C630        C  0.16532198  0.59101863  0.79880485     1.03400
Fe631      Fe  0.38391253  0.88182080  0.48995198     1.65800
Fe632      Fe  0.31206999  0.86300985  0.00262020     1.73200
Fe633      Fe  0.36552810  0.80675895  0.00320143     1.54400
O634        O  0.39711514  0.80762089  0.96841939    -0.81300
O635        O  0.30917027  0.84271538  0.54566392    -0.79600
O636        O  0.40293491  0.85689512  0.95490619    -0.83800
O637        O  0.41299726  0.86344988  0.52187597    -0.78600
O638        O  0.33527631  0.79346523  0.96995927    -0.80400
O639        O  0.32057172  0.90498690  0.52457355    -0.83200
C640        C  0.41492614  0.83964021  0.53898164     0.97600
C641        C  0.40835355  0.82832940  0.95140546     1.05000
O642        O  0.35393589  0.85055580  0.99860934    -1.12100
O643        O  0.31215974  0.88411996  0.95963662    -0.74600
O644        O  0.35762334  0.90409238  0.95724954    -0.78100
O645        O  0.39749527  0.81671516  0.53661452    -0.78700
C646        C  0.33132352  0.90131330  0.94695924     0.96500
O647        O  0.36941968  0.91047652  0.52421640    -0.76700
O648        O  0.29630500  0.82319381  0.98147248    -0.81900
C649        C  0.31655814  0.81544887  0.55357864     0.99100
C650        C  0.30804618  0.80050326  0.96733066     1.05100
O651        O  0.33499122  0.79905546  0.53836994    -0.77500
C652        C  0.34394685  0.91894028  0.53277709     1.03400
Fe653      Fe  0.88563977  0.60644785  0.99770909     1.65800
Fe654      Fe  0.81439936  0.63399930  0.00140564     1.73200
Fe655      Fe  0.87217611  0.68432448  0.99639349     1.54400
O656        O  0.90733774  0.67570365  0.52692156    -0.81300
O657        O  0.80475709  0.66194403  0.96364472    -0.79600
O658        O  0.91130824  0.62459658  0.53294192    -0.83800
O659        O  0.91276398  0.62605229  0.96451005    -0.78600
O660        O  0.84770266  0.69871658  0.53391226    -0.80400
O661        O  0.81564256  0.59631395  0.97125468    -0.83200
C662        C  0.91389122  0.65194783  0.95067736     0.97600
C663        C  0.91884026  0.65200798  0.53988330     1.05000
O664        O  0.85739589  0.64161628  0.99849911    -1.12100
O665        O  0.81988845  0.60570130  0.53974895    -0.74600
O666        O  0.86287637  0.58162886  0.53080600    -0.78100
O667        O  0.89812424  0.67501856  0.95838340    -0.78700
C668        C  0.83911817  0.58506149  0.54612297     0.96500
O669        O  0.86300741  0.58454847  0.96244635    -0.76700
O670        O  0.80662833  0.67061632  0.53171104    -0.81900
C671        C  0.81560801  0.68735859  0.95433489     0.99100
C672        C  0.82167812  0.69273607  0.54287591     1.05100
O673        O  0.83919612  0.69862428  0.96569506    -0.77500
C674        C  0.83556460  0.58111301  0.95695684     1.03400
Fe675      Fe  0.60382292  0.87312376  0.74988380     1.65800
Fe676      Fe  0.67884418  0.86142004  0.74434952     1.73200
Fe677      Fe  0.63143387  0.79964200  0.75118363     1.54400
O678        O  0.60475857  0.80319136  0.78984926    -0.81300
O679        O  0.69060026  0.82925946  0.71022485    -0.79600
O680        O  0.58142632  0.84817324  0.78283400    -0.83800
O681        O  0.58225347  0.85017028  0.71487264    -0.78600
O682        O  0.66660934  0.79181992  0.78091404    -0.80400
O683        O  0.66779505  0.89275950  0.70924216    -0.83200
C684        C  0.57971795  0.82170179  0.70828795     0.97600
C685        C  0.58484869  0.82270036  0.79695369     1.05000
O686        O  0.63818112  0.84474261  0.74846869    -1.12100
O687        O  0.67149115  0.89532402  0.77808452    -0.74600
O688        O  0.62251390  0.89916784  0.78483469    -0.78100
O689        O  0.59503017  0.80070307  0.72149651    -0.78700
C690        C  0.64890620  0.90681664  0.79166079     0.96500
O691        O  0.61998559  0.90244610  0.71698590    -0.76700
O692        O  0.69597417  0.83288475  0.77894014    -0.81900
C693        C  0.67996707  0.80362159  0.70090397     0.99100
C694        C  0.68938098  0.80646100  0.78968070     1.05100
O695        O  0.65759188  0.79106949  0.71321133    -0.77500
C696        C  0.64402513  0.90749460  0.70310537     1.03400
Fe697      Fe  0.10157740  0.37950576  0.00383831     1.65800
Fe698      Fe  0.17734279  0.37157026  0.00679816     1.73200
Fe699      Fe  0.13318584  0.30793998  0.99530547     1.54400
O700        O  0.09935427  0.30373877  0.52773927    -0.81300
O701        O  0.19511531  0.34728340  0.97026537    -0.79600
O702        O  0.07968123  0.35080131  0.53345855    -0.83800
O703        O  0.08185216  0.35896439  0.96633594    -0.78600
O704        O  0.16206905  0.29716850  0.53019486    -0.80400
O705        O  0.16818927  0.40784222  0.97616692    -0.83200
C706        C  0.08493950  0.33378315  0.95167258     0.97600
C707        C  0.08089930  0.32229527  0.54007159     1.05000
O708        O  0.13744388  0.35299880  0.50193869    -1.12100
O709        O  0.16520715  0.39839081  0.54412046    -0.74600
O710        O  0.11614435  0.40360608  0.54183364    -0.78100
O711        O  0.10373504  0.31318439  0.95911292    -0.78700
C712        C  0.14093273  0.40912130  0.55432230     0.96500
O713        O  0.11889820  0.41156912  0.97429328    -0.76700
O714        O  0.19153116  0.33767585  0.53796506    -0.81900
C715        C  0.18920462  0.32236128  0.95623480     0.99100
C716        C  0.18333203  0.31021453  0.54395693     1.05100
O717        O  0.16685099  0.30589464  0.96273851    -0.77500
C718        C  0.14438551  0.42037514  0.96620778     1.03400
Fe719      Fe  0.36924661  0.10401987  0.74360629     1.65800
Fe720      Fe  0.36018549  0.18174551  0.75782649     1.73200
Fe721      Fe  0.29990214  0.13552897  0.74602307     1.54400
O722        O  0.30151363  0.10450931  0.70978948    -0.81300
O723        O  0.33127151  0.19195384  0.79378060    -0.79600
O724        O  0.34856613  0.09055781  0.70330150    -0.83800
O725        O  0.34270826  0.07552084  0.77004801    -0.78600
O726        O  0.29644053  0.17087913  0.71389932    -0.80400
O727        O  0.38997731  0.16451401  0.79027105    -0.83200
C728        C  0.31773107  0.07793697  0.78332488     0.97600
C729        C  0.32161894  0.09045139  0.69495746     1.05000
O730        O  0.34316522  0.14049899  0.74922826    -1.12100
O731        O  0.39075585  0.17770838  0.72243872    -0.74600
O732        O  0.39947748  0.12725316  0.71661222    -0.78100
O733        O  0.29988071  0.10020920  0.77826501    -0.78700
C734        C  0.40443481  0.15530253  0.70987709     0.96500
O735        O  0.39292657  0.11341147  0.78314116    -0.76700
O736        O  0.33257544  0.20367836  0.72650273    -0.81900
C737        C  0.30437514  0.18486640  0.79813747     0.99100
C738        C  0.30998723  0.19638961  0.71064506     1.05100
O739        O  0.29090853  0.16534796  0.78163434    -0.77500
C740        C  0.39977574  0.13782402  0.79763115     1.03400
Fe741      Fe  0.60279715  0.11283485  0.00238422     1.65800
Fe742      Fe  0.61648699  0.19037331  0.50162479     1.73200
Fe743      Fe  0.67426734  0.13859467  0.49636200     1.54400
O744        O  0.67375098  0.10269949  0.52836161    -0.81300
O745        O  0.64061678  0.20360956  0.96335295    -0.79600
O746        O  0.62653636  0.09071369  0.53695136    -0.83800
O747        O  0.62398301  0.08726438  0.96875714    -0.78600
O748        O  0.68511668  0.16872732  0.53240889    -0.80400
O749        O  0.58121600  0.18213787  0.97246639    -0.83200
C750        C  0.64811823  0.08799853  0.95383533     0.97600
C751        C  0.65403589  0.08751172  0.54257939     1.05000
O752        O  0.63123261  0.14726411  0.50004733    -1.12100
O753        O  0.59105262  0.18245610  0.54051898    -0.74600
O754        O  0.57708629  0.13335017  0.53622028    -0.78100
O755        O  0.66841094  0.10738452  0.95993517    -0.78700
C756        C  0.57586573  0.15956835  0.54932416     0.96500
O757        O  0.57587319  0.13110923  0.96814530    -0.76700
O758        O  0.64937992  0.20460584  0.53094452    -0.81900
C759        C  0.66607552  0.19620701  0.95330855     0.99100
C760        C  0.67355394  0.19407112  0.54160779     1.05100
O761        O  0.68089969  0.17341618  0.96400716    -0.77500
C762        C  0.56875077  0.15866022  0.96088906     1.03400
Fe763      Fe  0.88737301  0.37147334  0.74572066     1.65800
Fe764      Fe  0.81313918  0.35508820  0.75044391     1.73200
Fe765      Fe  0.86519217  0.29655480  0.75032986     1.54400
O766        O  0.89732655  0.29957910  0.71617087    -0.81300
O767        O  0.80265957  0.32654157  0.78747368    -0.79600
O768        O  0.90741553  0.34947738  0.70910868    -0.83800
O769        O  0.91445932  0.34858363  0.77671869    -0.78600
O770        O  0.83571709  0.28639592  0.71593663    -0.80400
O771        O  0.82200155  0.39076912  0.78248365    -0.83200
C772        C  0.91408487  0.32309550  0.79122342     0.97600
C773        C  0.91053370  0.32117832  0.70202137     1.05000
O774        O  0.85511916  0.34104830  0.74880901    -1.12100
O775        O  0.81792898  0.38481955  0.71330580    -0.74600
O776        O  0.86511490  0.39938247  0.71442124    -0.78100
O777        O  0.89563159  0.30198941  0.78543342    -0.78700
C778        C  0.83905198  0.40123837  0.70350975     0.96500
O779        O  0.87116219  0.39621859  0.78221539    -0.76700
O780        O  0.79929210  0.32157831  0.71852519    -0.81900
C781        C  0.81223570  0.30023296  0.79629551     0.99100
C782        C  0.81099366  0.29721532  0.70703452     1.05100
O783        O  0.83440188  0.28696155  0.78404614    -0.77500
C784        C  0.84580336  0.40284270  0.79280663     1.03400
C785        C  0.75577433  0.26731489  0.64549802     0.19100
C786        C  0.72483672  0.26561588  0.64358920    -0.19000
C787        C  0.71128539  0.24632400  0.62181453    -0.11300
C788        C  0.72846565  0.22866518  0.60098860     0.21300
C789        C  0.75938668  0.23072610  0.60263709    -0.20600
C790        C  0.77291941  0.25001796  0.62437553    -0.11500
C791        C  0.71489870  0.20782255  0.57748586    -0.15600
C792        C  0.68771554  0.21305500  0.56582414    -0.29500
C793        C  0.76957044  0.28681399  0.66997822    -0.03700
C794        C  0.79618189  0.27970034  0.68216355    -0.40300
H795        H  0.71111478  0.27864415  0.65952858     0.12500
H796        H  0.68739180  0.24483161  0.62193427     0.12100
H797        H  0.77314022  0.21760416  0.58680149     0.11600
H798        H  0.79682173  0.25147536  0.62432162     0.11800
H799        H  0.72812578  0.18879052  0.56842061     0.14500
H800        H  0.67527236  0.23327385  0.57331838     0.13300
H801        H  0.75700096  0.30620956  0.67927577     0.11000
H802        H  0.80784364  0.25917164  0.67415521     0.13000
C803        C  0.75475960  0.27208366  0.85627571     0.19100
C804        C  0.72375786  0.27413107  0.85817740    -0.19000
C805        C  0.70801641  0.25543034  0.87882606    -0.11300
C806        C  0.72307943  0.23440348  0.89838851     0.21300
C807        C  0.75411633  0.23291165  0.89687923    -0.20600
C808        C  0.76979230  0.25157927  0.87632469    -0.11500
C809        C  0.70780299  0.21347490  0.92062968    -0.15600
C810        C  0.67905712  0.21579797  0.92874133    -0.29500
C811        C  0.77063586  0.29132240  0.83300853    -0.03700
C812        C  0.79733510  0.28333983  0.82154657    -0.40300
H813        H  0.71159407  0.28980959  0.84314473     0.12500
H814        H  0.68415059  0.25729984  0.87882857     0.12100
H815        H  0.76640718  0.21725596  0.91183057     0.11600
H816        H  0.79369780  0.24998318  0.87653989     0.11800
H817        H  0.72142736  0.19596609  0.93199182     0.14500
H818        H  0.66499231  0.23373382  0.91892328     0.13300
H819        H  0.75917189  0.31141876  0.82351788     0.11000
H820        H  0.80809855  0.26215965  0.82926126     0.13000
C821        C  0.50947005  0.15165255  0.60367853     0.19100
C822        C  0.47907247  0.15700493  0.59924771    -0.19000
C823        C  0.45956320  0.15580352  0.62428860    -0.11300
C824        C  0.47008863  0.14816720  0.65398395     0.21300
C825        C  0.50047747  0.14268081  0.65837674    -0.20600
C826        C  0.52012793  0.14493387  0.63352373    -0.11500
C827        C  0.44933843  0.14304474  0.67988092    -0.15600
C828        C  0.42645922  0.16222286  0.68572967    -0.29500
C829        C  0.52929105  0.15006648  0.57656699    -0.03700
C830        C  0.55604797  0.16342441  0.57609113    -0.40300
H831        H  0.47040931  0.16178159  0.57631319     0.12500
H832        H  0.43611624  0.15947348  0.62021930     0.12100
H833        H  0.50894281  0.13635878  0.68101943     0.11600
H834        H  0.54342461  0.14007152  0.63733140     0.11800
H835        H  0.45329115  0.12317240  0.69481325     0.14500
H836        H  0.42394503  0.18353807  0.67258934     0.13300
H837        H  0.52132272  0.13808191  0.55608985     0.11000
H838        H  0.56306944  0.17797546  0.59520534     0.13000
C839        C  0.50277175  0.14723145  0.90517541     0.19100
C840        C  0.48085831  0.12456217  0.90246704    -0.19000
C841        C  0.45739920  0.12832609  0.88161630    -0.11300
C842        C  0.45559802  0.15479131  0.86270836     0.21300
C843        C  0.47703962  0.17783390  0.86592824    -0.20600
C844        C  0.50058004  0.17402738  0.88668491    -0.11500
C845        C  0.43225375  0.15862849  0.83877448    -0.15600
C846        C  0.42048478  0.13436854  0.82383862    -0.29500
C847        C  0.52780642  0.14165630  0.92692617    -0.03700
C848        C  0.54481138  0.16439277  0.93829146    -0.40300
H849        H  0.48190120  0.10382181  0.91654243     0.12500
H850        H  0.44074622  0.11050109  0.88040837     0.12100
H851        H  0.47611341  0.19839794  0.85158928     0.11600
H852        H  0.51730705  0.19175753  0.88739394     0.11800
H853        H  0.42650259  0.18198083  0.83142879     0.14500
H854        H  0.42758903  0.11100893  0.82963861     0.13300
H855        H  0.53161741  0.11805994  0.93480968     0.11000
H856        H  0.54039102  0.18831930  0.93214305     0.13000
C857        C  0.01351662  0.31863645  0.59329532     0.19100
C858        C  0.98274609  0.31675793  0.58909378    -0.19000
C859        C  0.96366717  0.31802491  0.61452926    -0.11300
C860        C  0.97509944  0.32226217  0.64448682     0.21300
C861        C  0.00587177  0.32369159  0.64872717    -0.20600
C862        C  0.02498383  0.32139781  0.62341374    -0.11500
C863        C  0.95531585  0.32867702  0.67098457    -0.15600
C864        C  0.93023619  0.31298351  0.67608710    -0.29500
C865        C  0.03283217  0.32293438  0.56607140    -0.01300
C866        C  0.06033007  0.31091511  0.56389210    -0.40300
H867        H  0.97345081  0.31523880  0.56600568     0.12500
H868        H  0.93997547  0.31749391  0.61061140     0.12100
H869        H  0.01508054  0.32733220  0.67160621     0.11600
H870        H  0.04858030  0.32374753  0.62719472     0.11800
H871        H  0.96204677  0.34643331  0.68731500     0.14500
H872        H  0.92470290  0.29322614  0.66171603     0.13300
H873        H  0.02456205  0.33795044  0.54771931     0.11000
H874        H  0.06820648  0.29395488  0.58062597     0.13000
C875        C  0.01895613  0.33660366  0.89626346     0.19100
C876        C  0.98842713  0.33343722  0.90081438    -0.19000
C877        C  0.96927194  0.33152740  0.87549155    -0.11300
C878        C  0.98040741  0.33355158  0.84524935     0.21300
C879        C  0.01090578  0.33705352  0.84072139    -0.20600
C880        C  0.03014379  0.33816908  0.86603195    -0.11500
C881        C  0.96033268  0.33498247  0.81832902    -0.15600
C882        C  0.93549005  0.31823080  0.81649076    -0.29500
C883        C  0.03847164  0.34058744  0.92331145    -0.03700
C884        C  0.06579632  0.32823995  0.92476596    -0.40300
H885        H  0.97941097  0.33265983  0.92399842     0.12500
H886        H  0.94570588  0.32971140  0.87958220     0.12100
H887        H  0.01978510  0.33918858  0.81756888     0.11600
H888        H  0.05356960  0.34141189  0.86200388     0.11800
H889        H  0.96623686  0.35034262  0.79943221     0.14500
H890        H  0.93061264  0.30100216  0.83403366     0.13300
H891        H  0.02973232  0.35328394  0.94303110     0.11000
H892        H  0.07373913  0.31306038  0.90650812     0.13000
C893        C  0.26580787  0.23596190  0.64515053     0.19100
C894        C  0.25251858  0.22512575  0.61797325    -0.19000
C895        C  0.23967437  0.24576394  0.59697119    -0.11300
C896        C  0.23930014  0.27776791  0.60303804     0.21300
C897        C  0.25342200  0.28878975  0.62971653    -0.20600
C898        C  0.26639912  0.26807558  0.65077916    -0.11500
C899        C  0.22378357  0.29968582  0.58196698    -0.15600
C900        C  0.19889171  0.29128829  0.56726145    -0.29500
C901        C  0.27741233  0.21298431  0.66768132    -0.03700
C902        C  0.29923879  0.21922486  0.68781711    -0.40300
H903        H  0.25197651  0.20056114  0.61302357     0.12500
H904        H  0.22993793  0.23656405  0.57602083     0.12100
H905        H  0.25352859  0.31333751  0.63476074     0.11600
H906        H  0.27592698  0.27723840  0.67182801     0.11800
H907        H  0.23244376  0.32288511  0.57906746     0.14500
H908        H  0.18959709  0.26862085  0.57178396     0.13300
H909        H  0.26813457  0.18985761  0.66707781     0.11000
H910        H  0.30998355  0.24159881  0.68741125     0.13000
C911        C  0.27017887  0.24419497  0.85416331     0.19100
C912        C  0.27978557  0.26509405  0.87681843    -0.19000
C913        C  0.25934093  0.27954161  0.89655182    -0.11300
C914        C  0.22878835  0.27362586  0.89361216     0.21300
C915        C  0.21921203  0.25362706  0.87021091    -0.20600
C916        C  0.23955116  0.23934634  0.85050579    -0.11500
C917        C  0.20647140  0.28600365  0.91569491    -0.15600
C918        C  0.21022518  0.31208529  0.93210259    -0.29500
C919        C  0.29215965  0.22796916  0.83420393    -0.03700
C920        C  0.28670866  0.19970713  0.82264192    -0.40300
H921        H  0.30319431  0.26952231  0.87985298     0.12500
H922        H  0.26767203  0.29437994  0.91468689     0.12100
H923        H  0.19584726  0.24886616  0.86727231     0.11600
H924        H  0.23112347  0.22453260  0.83238552     0.11800
H925        H  0.18613589  0.27302262  0.91851572     0.14500
H926        H  0.22972182  0.32613144  0.92842841     0.13300
H927        H  0.31265022  0.23962844  0.82845563     0.11000
H928        H  0.26657268  0.18783997  0.82919929     0.13000
C929        C  0.66245138  0.97453192  0.64739834     0.19100
C930        C  0.68217019  0.98034318  0.62306127    -0.19000
C931        C  0.67731454  0.00541997  0.60290584    -0.11300
C932        C  0.65275389  0.02531328  0.60705449     0.21300
C933        C  0.63388227  0.02018377  0.63216442    -0.20600
C934        C  0.63880614  0.99539340  0.65227894    -0.11500
C935        C  0.64452531  0.05004884  0.58459206    -0.15600
C936        C  0.66386623  0.06458409  0.56607126    -0.29500
C937        C  0.66644389  0.94669394  0.66748136    -0.03700
C938        C  0.64286000  0.93219836  0.67949589    -0.40300
H939        H  0.70073323  0.96486131  0.61900779     0.12500
H940        H  0.69210805  0.00840109  0.58351657     0.12100
H941        H  0.61498314  0.03527555  0.63606321     0.11600
H942        H  0.62386957  0.99253728  0.67158049     0.11800
H943        H  0.62129576  0.05680186  0.58356774     0.14500
H944        H  0.68739035  0.05951436  0.56793338     0.13300
H945        H  0.68867569  0.93821467  0.67241975     0.11000
H946        H  0.62078601  0.94021237  0.67317404     0.13000
C947        C  0.63312608  0.01931463  0.89753951     0.19100
C948        C  0.65939476  0.01053884  0.88223747    -0.19000
C949        C  0.65931484  0.98627339  0.86049082    -0.11300
C950        C  0.63296218  0.97027591  0.85365799     0.21300
C951        C  0.60694215  0.97922406  0.86901437    -0.20600
C952        C  0.60704290  0.00320749  0.89062587    -0.11500
C953        C  0.63071788  0.94500098  0.83014401    -0.15600
C954        C  0.65366663  0.93063984  0.81602948    -0.29500
C955        C  0.63138339  0.04413289  0.92156467    -0.03700
C956        C  0.65262980  0.06493489  0.92859097    -0.40300
H957        H  0.68005746  0.02205748  0.88707933     0.12500
H958        H  0.67982892  0.98048429  0.84898896     0.12100
H959        H  0.58626266  0.96755846  0.86428912     0.11600
H960        H  0.58644886  0.00923527  0.90200504     0.11800
H961        H  0.60843347  0.93780848  0.82405367     0.14500
H962        H  0.67628519  0.93668032  0.82174207     0.13300
H963        H  0.61070204  0.04535830  0.93431310     0.11000
H964        H  0.67340923  0.06509804  0.91610810     0.13000
C965        C  0.84385729  0.47195673  0.64981216     0.19100
C966        C  0.84625879  0.50385030  0.65530059    -0.19000
C967        C  0.84518235  0.52494496  0.63071261    -0.11300
C968        C  0.84252626  0.51432073  0.60011759     0.21300
C969        C  0.83998921  0.48245288  0.59466658    -0.20600
C970        C  0.84023510  0.46144554  0.61929415    -0.11500
C971        C  0.84553112  0.53555139  0.57342529    -0.15600
C972        C  0.83389181  0.56429137  0.57268272    -0.29500
C973        C  0.84801956  0.44996149  0.67579982    -0.03700
C974        C  0.83309265  0.42326089  0.67809615    -0.40300
H975        H  0.84943028  0.51239250  0.67862884     0.12500
H976        H  0.84785172  0.54935543  0.63549531     0.12100
H977        H  0.83832272  0.47377121  0.57122003     0.11600
H978        H  0.83900706  0.43693478  0.61433601     0.11800
H979        H  0.85726482  0.52684204  0.55326303     0.14500
H980        H  0.81989101  0.57237188  0.59145158     0.13300
H981        H  0.86346130  0.45631094  0.69403900     0.11000
H982        H  0.81562178  0.41795974  0.66163238     0.13000
C983        C  0.82809668  0.47088861  0.84819451     0.19100
C984        C  0.80510616  0.48110864  0.86759374    -0.19000
C985        C  0.81006257  0.50448684  0.88964252    -0.11300
C986        C  0.83813211  0.51838434  0.89236443     0.21300
C987        C  0.86063466  0.50886234  0.87213498    -0.20600
C988        C  0.85567786  0.48576667  0.85021259    -0.11500
C989        C  0.84576458  0.54182997  0.91644514    -0.15600
C990        C  0.82606098  0.55838331  0.93314507    -0.29500
C991        C  0.82333478  0.44491818  0.82585137    -0.03700
C992        C  0.84580897  0.42575602  0.81822174    -0.40300
H993        H  0.78354246  0.47038391  0.86628966     0.12500
H994        H  0.79213142  0.51089057  0.90491398     0.12100
H995        H  0.88234011  0.51931788  0.87332808     0.11600
H996        H  0.87361704  0.47970912  0.83477086     0.11800
H997        H  0.86920561  0.54603701  0.92021127     0.14500
H998        H  0.80248809  0.55557504  0.92932508     0.13300
H999        H  0.80164060  0.44190514  0.81539538     0.11000
H1000       H  0.86700201  0.42853193  0.82981543     0.13000
C1001       C  0.75724527  0.71502802  0.89357282     0.19100
C1002       C  0.72736541  0.70777932  0.88850906    -0.19000
C1003       C  0.71035896  0.72411964  0.86676653    -0.11300
C1004       C  0.72266618  0.74828070  0.84942500     0.21300
C1005       C  0.75276270  0.75534791  0.85401342    -0.20600
C1006       C  0.76986223  0.73889846  0.87579606    -0.11500
C1007       C  0.70351992  0.76433088  0.82605971    -0.15600
C1008       C  0.70934292  0.79210368  0.81315972    -0.29500
C1009       C  0.77418911  0.69671112  0.91720618    -0.03700
C1010       C  0.80038588  0.70524284  0.92950241    -0.40300
H1011       H  0.71701922  0.68941368  0.90156471     0.12500
H1012       H  0.68736457  0.71786800  0.86355952     0.12100
H1013       H  0.76343057  0.77306479  0.84046021     0.11600
H1014       H  0.79299117  0.74471232  0.87810426     0.11800
H1015       H  0.68310153  0.75278701  0.81965180     0.14500
H1016       H  0.72894814  0.80480510  0.81988913     0.13300
H1017       H  0.76391464  0.67575854  0.92582609     0.11000
H1018       H  0.81068675  0.72661836  0.92228649     0.13000
C1019       C  0.73528438  0.77329824  0.63933992     0.19100
C1020       C  0.76630732  0.77343395  0.63740044    -0.19000
C1021       C  0.78125214  0.75361291  0.61697317    -0.11300
C1022       C  0.76538508  0.73341198  0.59752810     0.21300
C1023       C  0.73432067  0.73377432  0.59907157    -0.20600
C1024       C  0.71941348  0.75354541  0.61949684    -0.11500
C1025       C  0.77999776  0.71153935  0.57545836    -0.15600
C1026       C  0.80860578  0.71317238  0.56681447    -0.29500
C1027       C  0.72033752  0.79343479  0.66273507    -0.03700
C1028       C  0.69383649  0.78647989  0.67500067    -0.40300
H1029       H  0.77911042  0.78840558  0.65233820     0.12500
H1030       H  0.80516342  0.75394439  0.61712059     0.12100
H1031       H  0.72144143  0.71874607  0.58425909     0.11600
H1032       H  0.69546819  0.75336648  0.61942157     0.11800
H1033       H  0.76612397  0.69406852  0.56477916     0.14500
H1034       H  0.82276833  0.73108987  0.57602118     0.13300
H1035       H  0.73248038  0.81302871  0.67189720     0.11000
H1036       H  0.68246880  0.76577016  0.66747520     0.13000
C1037       C  0.31860994  0.98936816  0.58043137     0.19100
C1038       C  0.29730032  0.99425429  0.60345604    -0.19000
C1039       C  0.30065023  0.01833459  0.62482202    -0.11300
C1040       C  0.32526652  0.03811043  0.62312906     0.21300
C1041       C  0.34531311  0.03447782  0.59873620    -0.20600
C1042       C  0.34188499  0.01060338  0.57739996    -0.11500
C1043       C  0.33274424  0.06018887  0.64812885    -0.15600
C1044       C  0.31271675  0.07238721  0.66757729    -0.29500
C1045       C  0.31747339  0.96107635  0.56103967    -0.03700
C1046       C  0.34258693  0.94653691  0.55261349    -0.40300
H1047       H  0.27902528  0.97837990  0.60600793     0.12500
H1048       H  0.28493828  0.02015466  0.64357465     0.12100
H1049       H  0.36425475  0.04957771  0.59675495     0.11600
H1050       H  0.35801780  0.00825760  0.55906559     0.11800
H1051       H  0.35596517  0.06601755  0.65107417     0.14500
H1052       H  0.28924729  0.06849663  0.66390104     0.13300
H1053       H  0.29610552  0.95134417  0.55502578     0.11000
H1054       H  0.36376287  0.95558045  0.56027288     0.13000
C1055       C  0.32070250  0.00584657  0.83509552     0.19100
C1056       C  0.32313267  0.97368078  0.83103092    -0.19000
C1057       C  0.32573304  0.95397255  0.85667625    -0.11300
C1058       C  0.32681294  0.96635589  0.88669521     0.21300
C1059       C  0.32376800  0.99837513  0.89075981    -0.20600
C1060       C  0.32035099  0.01794425  0.86527001    -0.11500
C1061       C  0.33454020  0.94702402  0.91378602    -0.15600
C1062       C  0.32268018  0.91916145  0.91920793    -0.29500
C1063       C  0.32285113  0.02666030  0.80794175    -0.03700
C1064       C  0.30978015  0.05472745  0.80687118    -0.40300
H1065       H  0.32389491  0.96391454  0.80796804     0.12500
H1066       H  0.32858862  0.92934772  0.85298948     0.12100
H1067       H  0.32487789  0.00834696  0.91372616     0.11600
H1068       H  0.31932461  0.04266787  0.86917271     0.11800
H1069       H  0.34957303  0.95688396  0.93077283     0.14500
H1070       H  0.30549428  0.91025564  0.90406066     0.13300
H1071       H  0.33688584  0.01923876  0.78891227     0.11000
H1072       H  0.29396035  0.06143316  0.82456790     0.13000
C1073       C  0.52212413  0.82605717  0.64210338     0.19100
C1074       C  0.51910078  0.84617730  0.61687449    -0.19000
C1075       C  0.49658452  0.84208872  0.59516773    -0.11300
C1076       C  0.47575000  0.81825108  0.59867527     0.21300
C1077       C  0.47950288  0.79721116  0.62320345    -0.20600
C1078       C  0.50245975  0.80107886  0.64483644    -0.11500
C1079       C  0.44994023  0.81538822  0.57722298    -0.15600
C1080       C  0.43869856  0.84025957  0.56241755    -0.29500
C1081       C  0.54468709  0.83346883  0.66596430    -0.03700
C1082       C  0.55783713  0.81241965  0.68451694    -0.40300
H1083       H  0.53418153  0.86534132  0.61402297     0.12500
H1084       H  0.49562965  0.85784348  0.57573427     0.12100
H1085       H  0.46406461  0.77840518  0.62622251     0.11600
H1086       H  0.50398747  0.78530948  0.66424442     0.11800
H1087       H  0.43989137  0.79286718  0.57392455     0.14500
H1088       H  0.44799921  0.86291323  0.56679964     0.13300
H1089       H  0.55137049  0.85752450  0.66766729     0.11000
H1090       H  0.55294372  0.78800314  0.68193223     0.13000
C1091       C  0.47439200  0.82907110  0.89603680     0.19100
C1092       C  0.50432960  0.83593013  0.90105367    -0.19000
C1093       C  0.52494252  0.83237747  0.87727215    -0.11300
C1094       C  0.51571630  0.82275312  0.84778113     0.21300
C1095       C  0.48581515  0.81558092  0.84281914    -0.20600
C1096       C  0.46532981  0.81824172  0.86690288    -0.11500
C1097       C  0.53606138  0.82421315  0.82114012    -0.15600
C1098       C  0.56479289  0.81597948  0.82282867    -0.29500
C1099       C  0.45269800  0.83659401  0.92044888    -0.03700
C1100       C  0.42911175  0.81897822  0.92685537    -0.40300
H1101       H  0.51164622  0.84468151  0.92326479     0.12500
H1102       H  0.54773500  0.83881163  0.88146215     0.12100
H1103       H  0.47821405  0.80862441  0.82008018     0.11600
H1104       H  0.44222998  0.81344065  0.86230587     0.11800
H1105       H  0.52715167  0.83304193  0.79941816     0.14500
H1106       H  0.57356681  0.80455451  0.84333726     0.13300
H1107       H  0.45694538  0.85696114  0.93450369     0.11000
H1108       H  0.42604532  0.79695204  0.91523044     0.13000
C1109       C  0.16520156  0.46494803  0.61838256     0.19100
C1110       C  0.18692271  0.48794153  0.61930939    -0.19000
C1111       C  0.18544036  0.51164846  0.64127855    -0.11300
C1112       C  0.16220997  0.51251143  0.66293661     0.21300
C1113       C  0.14134670  0.48861052  0.66278468    -0.20600
C1114       C  0.14282129  0.46504491  0.64086457    -0.11500
C1115       C  0.15815905  0.53773354  0.68585464    -0.15600
C1116       C  0.17462244  0.56353249  0.68769009    -0.29500
C1117       C  0.16590530  0.44168807  0.59326592    -0.03700
C1118       C  0.14098205  0.42946092  0.58156273    -0.40300
H1119       H  0.20459528  0.48806093  0.60242224     0.12500
H1120       H  0.20234198  0.52916903  0.64079165     0.12100
H1121       H  0.12349922  0.48835887  0.67947406     0.11600
H1122       H  0.12635172  0.44700928  0.64157211     0.11800
H1123       H  0.13989474  0.53506289  0.70193818     0.14500
H1124       H  0.19327803  0.56725724  0.67249994     0.13300
H1125       H  0.18706131  0.43655647  0.58242212     0.11000
H1126       H  0.11955676  0.43630261  0.59073281     0.13000
C1127       C  0.16003749  0.53517085  0.86848164     0.19100
C1128       C  0.13995519  0.53221971  0.89292812    -0.19000
C1129       C  0.14369860  0.50906220  0.91513855    -0.11300
C1130       C  0.16737404  0.48778092  0.91307255     0.21300
C1131       C  0.18836989  0.49161274  0.88956778    -0.20600
C1132       C  0.18467865  0.51495979  0.86729220    -0.11500
C1133       C  0.16956496  0.46078946  0.93439394    -0.15600
C1134       C  0.14498659  0.44674730  0.94456515    -0.29500
C1135       C  0.15316260  0.55804348  0.84370711    -0.03700
C1136       C  0.17345098  0.56974482  0.82433577    -0.40300
H1137       H  0.12097413  0.54762308  0.89458798     0.12500
H1138       H  0.12771152  0.50758200  0.93367127     0.12100
H1139       H  0.20690298  0.47567043  0.88762729     0.11600
H1140       H  0.20043131  0.51615579  0.84855364     0.11800
H1141       H  0.19126351  0.45156580  0.94050118     0.14500
H1142       H  0.12349617  0.45511543  0.93667336     0.13300
H1143       H  0.13026483  0.56573320  0.84152004     0.11000
H1144       H  0.19668523  0.56372910  0.82711062     0.13000
C1145       C  0.02717157  0.63719889  0.64601011     0.19100
C1146       C  0.01749033  0.66458748  0.63122401    -0.19000
C1147       C  0.99430002  0.66393387  0.60939092    -0.11300
C1148       C  0.98024037  0.63586843  0.60184243     0.21300
C1149       C  0.99007394  0.60872053  0.61665173    -0.20600
C1150       C  0.01313433  0.60936578  0.63829272    -0.11500
C1151       C  0.95600889  0.63308538  0.57824715    -0.15600
C1152       C  0.94215538  0.65690244  0.56380921    -0.29500
C1153       C  0.05186950  0.63590500  0.66918949    -0.03700
C1154       C  0.06436627  0.66054174  0.68318553    -0.40300
H1155       H  0.02792784  0.68649877  0.63596817     0.12500
H1156       H  0.98791830  0.68540235  0.59832273     0.12100
H1157       H  0.97991397  0.58670942  0.61137489     0.11600
H1158       H  0.02002725  0.58784709  0.64911246     0.11800
H1159       H  0.94917149  0.60973809  0.57242160     0.14500
H1160       H  0.94792122  0.68058241  0.56921200     0.13300
H1161       H  0.05950989  0.61294818  0.67593844     0.11000
H1162       H  0.05688785  0.68382625  0.67778072     0.13000
C1163       C  0.02161440  0.65137235  0.84786355     0.19100
C1164       C  0.03173332  0.64784317  0.87844012    -0.19000
C1165       C  0.01150002  0.64403253  0.90258296    -0.11300
C1166       C  0.98092029  0.64459674  0.89664930     0.21300
C1167       C  0.97085304  0.64848471  0.86607807    -0.20600
C1168       C  0.99107919  0.65138935  0.84187138    -0.11500
C1169       C  0.95990902  0.63990781  0.92243714    -0.15600
C1170       C  0.93424822  0.65573578  0.92439438    -0.29500
C1171       C  0.04244732  0.65151326  0.82159190    -0.03700
C1172       C  0.06789365  0.66751548  0.82150195    -0.40300
H1173       H  0.05523351  0.64688985  0.88348292     0.12500
H1174       H  0.01970548  0.64071439  0.92594600     0.12100
H1175       H  0.94740080  0.64829553  0.86077402     0.11600
H1176       H  0.98289578  0.65344976  0.81835731     0.11800
H1177       H  0.96650558  0.62451576  0.94118395     0.14500
H1178       H  0.92893390  0.67338497  0.90728735     0.13300
H1179       H  0.03639216  0.63798273  0.80136619     0.11000
H1180       H  0.07309469  0.68317488  0.84037004     0.13000
C1181       C  0.24430671  0.73064537  0.65464498     0.19100
C1182       C  0.26834687  0.74982469  0.66165333    -0.19000
C1183       C  0.28429035  0.76410308  0.63797979    -0.11300
C1184       C  0.27696368  0.75856043  0.60688670     0.21300
C1185       C  0.25333037  0.73887426  0.59986388    -0.20600
C1186       C  0.23681919  0.72536311  0.62353441    -0.11500
C1187       C  0.29430274  0.77210535  0.58136530    -0.15600
C1188       C  0.30234497  0.80196725  0.58103579    -0.29500
C1189       C  0.22862024  0.71478292  0.68003776    -0.03700
C1190       C  0.19909270  0.71085699  0.68017379    -0.40300
H1191       H  0.27469829  0.75383591  0.68550300     0.12500
H1192       H  0.30277837  0.77879179  0.64390643     0.12100
H1193       H  0.24754722  0.73411287  0.57599669     0.11600
H1194       H  0.21880367  0.71008528  0.61752750     0.11800
H1195       H  0.29820355  0.75788607  0.56101312     0.14500
H1196       H  0.29566960  0.81725165  0.59975094     0.13300
H1197       H  0.24169424  0.70720572  0.69985442     0.11000
H1198       H  0.18550775  0.72081744  0.66184873     0.13000
C1199       C  0.24068509  0.72003289  0.85939637     0.19100
C1200       C  0.24339372  0.71103009  0.89048264    -0.19000
C1201       C  0.26169829  0.72746571  0.91071365    -0.11300
C1202       C  0.27839131  0.75245806  0.89982438     0.21300
C1203       C  0.27630472  0.76099173  0.86858398    -0.20600
C1204       C  0.25723202  0.74521887  0.84858560    -0.11500
C1205       C  0.29849926  0.76945369  0.92068546    -0.15600
C1206       C  0.28881970  0.78164266  0.94737673    -0.29500
C1207       C  0.22216771  0.70152354  0.83812319    -0.03700
C1208       C  0.20460977  0.71443638  0.81636202    -0.40300
H1209       H  0.23115358  0.69139880  0.89912901     0.12500
H1210       H  0.26333305  0.72029873  0.93468617     0.12100
H1211       H  0.28920747  0.78007633  0.85977615     0.11600
H1212       H  0.25604109  0.75211952  0.82451508     0.11800
H1213       H  0.32083535  0.77423204  0.91281396     0.14500
H1214       H  0.26560017  0.77960269  0.95354885     0.13300
H1215       H  0.22253449  0.67653139  0.84096722     0.11000
H1216       H  0.20238355  0.73945666  0.81503973     0.13000
loop_ 
_geom_bond_atom_site_label_1 
_geom_bond_atom_site_label_2 
_geom_bond_distance 
_geom_bond_site_symmetry_2 
_ccdc_geom_bond_type 
Fe1          O17   2.063       .  S
Fe1           O7   2.062       .  S
Fe1          O14   2.063       .  S
Fe1           O6   2.061       .  S
Fe1          O12   1.955       .  S
Fe2           O5   2.052       .  S
Fe2           O9   2.079       .  S
Fe2          O13   2.062       .  S
Fe2          O18   2.075       .  S
Fe2          O12   1.960       .  S
Fe3          O21   2.092       .  S
Fe3           O8   2.068       .  S
Fe3          O15   2.076       .  S
Fe3           O4   2.099       .  S
Fe3          O12   1.960       .  S
O4           C11   1.275       .  A
O5           C19   1.268       .  A
O6           C11   1.271       .  A
O7           C10   1.269       .  A
O8           C20   1.270       .  A
O9           C22   1.270       .  A
C10          O15   1.270       .  A
C10         C564   1.476       .  S
C11         C546   1.489       .  S
O13          C16   1.267       .  A
O14          C16   1.270       .  A
C16         C508   1.475       .  S
O17          C22   1.271       .  A
O18          C20   1.272       .  A
C19          O21   1.273       .  A
C19         C600   1.478       .  S
C20         C582   1.476       .  S
C22         C528   1.479       .  S
Fe23         O39   2.038   1_556  S
Fe23         O29   2.056   1_556  S
Fe23        O644   2.073       .  S
Fe23        O636   2.048       .  S
Fe23        O642   1.957       .  S
Fe24         O35   2.069       .  S
Fe24         O40   2.079       .  S
Fe24        O635   2.061       .  S
Fe24        O639   2.085       .  S
Fe24         O34   1.970       .  S
Fe25         O30   2.064       .  S
Fe25         O26   2.077       .  S
Fe25        O651   2.084       .  S
Fe25        O645   2.085       .  S
Fe25         O34   1.969       .  S
O26          C33   1.268       .  A
O27        Fe632   2.061       .  S
O27          C41   1.268       .  A
O28        Fe631   2.048       .  S
O28          C33   1.266       .  A
O29          C32   1.269       .  A
O30          C42   1.269       .  A
O31        Fe632   2.085       .  S
O31          C44   1.269       .  A
C32          O37   1.274       .  A
C32         C472   1.474       .  S
C33         C492   1.473       .  S
O34        Fe631   1.957       .  S
O35          C38   1.271       .  A
O36        Fe631   2.073       .  S
O36          C38   1.273       .  A
O37        Fe633   2.085       .  S
C38         C454   1.475       .  S
O39          C44   1.261       .  A
O40          C42   1.269       .  A
C41          O43   1.274       .  A
C41         C580   1.473       .  S
C42         C598   1.473       .  S
O43        Fe633   2.084       .  S
C44         C438   1.470       .  S
Fe45         O61   2.066       .  S
Fe45         O51   2.075       .  S
Fe45        O666   2.070       .  S
Fe45        O658   2.068       .  S
Fe45         O56   1.976       .  S
Fe46         O49   2.072       .  S
Fe46         O53   2.087       .  S
Fe46        O665   2.071       .  S
Fe46        O670   2.082       .  S
Fe46         O56   1.976       .  S
Fe47         O65   2.081       .  S
Fe47         O59   2.059       .  S
Fe47        O660   2.061       .  S
Fe47        O656   2.089       .  S
Fe47         O56   1.970       .  S
O48        Fe655   2.089   1_554  S
O48          C55   1.273       .  A
O49          C63   1.272       .  A
O50        Fe653   2.068   1_554  S
O50          C55   1.271       .  A
O51          C54   1.270       .  A
O52        Fe655   2.061   1_554  S
O52          C64   1.267       .  A
O53          C66   1.272       .  A
C54          O59   1.266       .  A
C54         C562   1.474       .  S
C55         C544   1.489       .  S
O57        Fe654   2.071       .  S
O57          C60   1.269       .  A
O58        Fe653   2.070   1_554  S
O58          C60   1.270       .  A
C60         C364   1.477       .  S
O61          C66   1.271       .  A
O62        Fe654   2.082       .  S
O62          C64   1.272       .  A
C63          O65   1.272       .  A
C63         C402   1.485       .  S
C64         C418   1.482       .  S
C66         C382   1.488       .  S
Fe67         O83   2.044       .  S
Fe67         O73   2.057       .  S
Fe67         O80   2.066       .  S
Fe67         O72   2.059       .  S
Fe67         O78   1.971       .  S
Fe68         O71   2.094       .  S
Fe68         O75   2.089       .  S
Fe68         O79   2.093       .  S
Fe68         O84   2.080       .  S
Fe68         O78   1.986       .  S
Fe69         O87   2.057       .  S
Fe69         O74   2.065       .  S
Fe69         O81   2.082       .  S
Fe69         O70   2.068       .  S
Fe69         O78   1.979       .  S
O70          C77   1.266       .  A
O71          C85   1.276       .  A
O72          C77   1.266       .  A
O73          C76   1.269       .  A
O74          C86   1.269       .  A
O75          C88   1.271       .  A
C76          O81   1.270       .  A
C76         C474   1.481       .  S
C77         C490   1.472       .  S
O79          C82   1.276       .  A
O80          C82   1.273       .  A
C82         C346   1.490       .  S
O83          C88   1.263       .  A
O84          C86   1.270       .  A
C85          O87   1.269       .  A
C85         C420   1.481       .  S
C86         C400   1.487       .  S
C88         C330   1.477       .  S
Fe89        O105   2.046       .  S
Fe89         O95   2.053       .  S
Fe89        O710   2.055       .  S
Fe89        O702   2.045       .  S
Fe89        O708   1.978       .  S
Fe90         O93   2.058       .  S
Fe90         O97   2.089       .  S
Fe90        O709   2.060       .  S
Fe90        O714   2.085       .  S
Fe90        O708   1.989       .  S
Fe91        O109   2.077       .  S
Fe91        O103   2.061       .  S
Fe91        O704   2.041       .  S
Fe91        O700   2.087       .  S
Fe91        O708   1.979       .  S
O92        Fe699   2.087   1_554  S
O92          C99   1.271       .  A
O93         C107   1.266       .  A
O94        Fe697   2.045       .  S
O94          C99   1.265       .  A
O95          C98   1.267       .  A
O96        Fe699   2.041   1_554  S
O96         C108   1.264       .  A
O97         C110   1.273       .  A
C98         O103   1.266       .  A
C98         C276   1.467       .  S
C99         C258   1.476       .  S
O100       Fe697   1.978       .  S
O100       Fe698   1.989       .  S
O100       Fe699   1.979   1_554  S
O101       Fe698   2.060       .  S
O101        C104   1.267       .  A
O102       Fe697   2.055       .  S
O102        C104   1.265       .  A
C104        C510   1.470       .  S
O105        C110   1.265       .  A
O106       Fe698   2.085       .  S
O106        C108   1.273       .  A
C107        O109   1.272       .  A
C107        C310   1.479       .  S
C108        C292   1.470       .  S
C110        C526   1.474       .  S
Fe111       O127   2.055       .  S
Fe111       O117   2.071       .  S
Fe111       O124   2.065       .  S
Fe111       O116   2.060       .  S
Fe111       O122   1.976       .  S
Fe112       O115   2.078       .  S
Fe112       O119   2.073       .  S
Fe112       O123   2.070       .  S
Fe112       O128   2.062       .  S
Fe112       O122   1.982       .  S
Fe113       O131   2.048       .  S
Fe113       O118   2.068       .  S
Fe113       O125   2.066       .  S
Fe113       O114   2.063       .  S
Fe113       O122   1.971       .  S
O114        C121   1.265       .  A
O115        C129   1.270       .  A
O116        C121   1.268       .  A
O117        C120   1.271       .  A
O118        C130   1.273       .  A
O119        C132   1.272       .  A
C120        O125   1.269       .  A
C120        C456   1.476       .  S
C121        C436   1.475       .  S
O123        C126   1.268       .  A
O124        C126   1.268       .  A
C126        C220   1.476       .  S
O127        C132   1.267       .  A
O128        C130   1.269       .  A
C129        O131   1.263       .  A
C129        C312   1.472       .  S
C130        C294   1.473       .  S
C132        C238   1.473       .  S
Fe133       O149   2.064       .  S
Fe133       O139   2.060       .  S
Fe133       O754   2.066       .  S
Fe133       O746   2.066       .  S
Fe133       O752   1.976       .  S
Fe134       O145   2.069       .  S
Fe134       O150   2.048       .  S
Fe134       O745   2.067   1_554  S
Fe134       O749   2.061   1_554  S
Fe134       O144   1.975       .  S
Fe135       O140   2.091   1_556  S
Fe135       O136   2.078   1_556  S
Fe135       O761   2.077       .  S
Fe135       O755   2.092       .  S
Fe135       O144   1.983   1_556  S
O136        C143   1.270       .  A
O137       Fe742   2.067       .  S
O137        C151   1.269       .  A
O138       Fe741   2.066       .  S
O138        C143   1.271       .  A
O139        C142   1.269       .  A
O140        C152   1.274       .  A
O141       Fe742   2.061       .  S
O141        C154   1.267       .  A
C142        O147   1.274       .  A
C142        C348   1.492       .  S
C143        C328   1.483       .  S
O144       Fe741   1.976       .  S
O145        C148   1.267       .  A
O146       Fe741   2.065       .  S
O146        C148   1.268       .  A
O147       Fe743   2.092       .  S
C148        C222   1.474       .  S
O149        C154   1.270       .  A
O150        C152   1.265       .  A
C151        O153   1.272       .  A
C151        C202   1.483       .  S
C152        C184   1.477       .  S
O153       Fe743   2.077       .  S
C154        C240   1.474       .  S
Fe155       O171   2.041       .  S
Fe155       O161   2.058       .  S
Fe155       O168   2.065       .  S
Fe155       O160   2.056       .  S
Fe155       O166   1.975       .  S
Fe156       O159   2.078       .  S
Fe156       O163   2.113       .  S
Fe156       O167   2.068       .  S
Fe156       O172   2.098       .  S
Fe156       O166   1.987       .  S
Fe157       O175   2.062       .  S
Fe157       O162   2.042       .  S
Fe157       O169   2.058       .  S
Fe157       O158   2.078       .  S
Fe157       O166   1.973       .  S
O158        C165   1.270       .  A
O159        C173   1.271       .  A
O160        C165   1.268       .  A
O161        C164   1.267       .  A
O162        C174   1.265       .  A
O163        C176   1.278       .  A
C164        O169   1.265       .  A
C164        C274   1.470       .  S
C165        C256   1.475       .  S
O167        C170   1.267       .  A
O168        C170   1.268       .  A
C170        C366   1.475       .  S
O171        C176   1.265       .  A
O172        C174   1.276       .  A
C173        O175   1.267       .  A
C173        C204   1.479       .  S
C174        C186   1.476       .  S
C176        C384   1.479       .  S
C177        C185   1.491       .  S
C177        C178   1.402       .  A
C177        C182   1.410       .  A
C178        C179   1.400       .  A
C178        H187   1.083       .  S
C179        C180   1.411       .  A
C179        H188   1.081       .  S
C180        C183   1.491       .  S
C180        C181   1.401       .  A
C181        C182   1.399       .  A
C181        H189   1.083       .  S
C182        H190   1.082       .  S
C183        H191   1.087       .  S
C183        C184   1.343       .  D
C184        H192   1.085       .  S
C185        H193   1.087       .  S
C185        C186   1.343       .  D
C186        H194   1.086       .  S
C195        C203   1.493       .  S
C195        C196   1.405       .  A
C195        C200   1.408       .  A
C196        C197   1.403       .  A
C196        H205   1.083       .  S
C197        C198   1.410       .  A
C197        H206   1.080       .  S
C198        C201   1.494       .  S
C198        C199   1.404       .  A
C199        C200   1.398       .  A
C199        H207   1.083       .  S
C200        H208   1.081       .  S
C201        H209   1.087       .  S
C201        C202   1.349       .  D
C202        H210   1.083       .  S
C203        H211   1.087       .  S
C203        C204   1.347       .  D
C204        H212   1.085       .  S
C213        C221   1.478       .  S
C213        C214   1.402       .  A
C213        C218   1.404       .  A
C214        C215   1.399       .  A
C214        H223   1.083       .  S
C215        C216   1.405       .  A
C215        H224   1.083       .  S
C216        C219   1.480       .  S
C216        C217   1.403       .  A
C217        C218   1.400       .  A
C217        H225   1.083       .  S
C218        H226   1.083       .  S
C219        H227   1.087       .  S
C219        C220   1.344       .  D
C220        H228   1.087       .  S
C221        H229   1.087       .  S
C221        C222   1.343       .  D
C222        H230   1.087       .  S
C231        C239   1.486       .  S
C231        C232   1.403       .  A
C231        C236   1.409       .  A
C232        C233   1.397       .  A
C232        H241   1.083       .  S
C233        C234   1.407       .  A
C233        H242   1.082       .  S
C234        C237   1.482       .  S
C234        C235   1.401       .  A
C235        C236   1.397       .  A
C235        H243   1.083       .  S
C236        H244   1.081       .  S
C237        H245   1.087       .  S
C237        C238   1.344       .  D
C238        H246   1.086       .  S
C239        H247   1.087       .  S
C239        C240   1.344       .  D
C240        H248   1.084       .  S
C249        C257   1.480       .  S
C249        C250   1.404   1_455  A
C249        C254   1.405       .  A
C250        C251   1.400       .  A
C250        H259   1.083       .  S
C251        C252   1.405       .  A
C251        H260   1.083       .  S
C252        C255   1.480       .  S
C252        C253   1.403   1_655  A
C253        C254   1.399       .  A
C253        H261   1.083       .  S
C254        H262   1.083       .  S
C255        H263   1.087       .  S
C255        C256   1.344       .  D
C256        H264   1.086       .  S
C257        H265   1.088       .  S
C257        C258   1.346       .  D
C258        H266   1.086       .  S
C267        C275   1.472       .  S
C267        C268   1.401   1_455  A
C267        C272   1.404       .  A
C268        C269   1.395       .  A
C268        H277   1.083       .  S
C269        C270   1.405       .  A
C269        H278   1.083       .  S
C270        C273   1.473       .  S
C270        C271   1.401   1_655  A
C271        C272   1.395       .  A
C271        H279   1.083       .  S
C272        H280   1.083       .  S
C273        H281   1.087       .  S
C273        C274   1.342       .  D
C274        H282   1.087       .  S
C275        H283   1.088       .  S
C275        C276   1.342       .  D
C276        H284   1.087       .  S
C285        C293   1.482       .  S
C285        C286   1.400       .  A
C285        C290   1.410       .  A
C286        C287   1.394       .  A
C286        H295   1.084       .  S
C287        C288   1.408       .  A
C287        H296   1.082       .  S
C288        C291   1.483       .  S
C288        C289   1.401       .  A
C289        C290   1.400       .  A
C289        H297   1.083       .  S
C290        H298   1.082       .  S
C291        H299   1.086       .  S
C291        C292   1.342       .  D
C292        H300   1.087       .  S
C293        H301   1.087       .  S
C293        C294   1.342       .  D
C294        H302   1.085       .  S
C303        C311   1.489       .  S
C303        C304   1.403       .  A
C303        C308   1.409       .  A
C304        C305   1.402       .  A
C304        H313   1.083       .  S
C305        C306   1.410       .  A
C305        H314   1.081       .  S
C306        C309   1.487       .  S
C306        C307   1.400       .  A
C307        C308   1.395       .  A
C307        H315   1.084       .  S
C308        H316   1.082       .  S
C309        H317   1.087       .  S
C309        C310   1.344       .  D
C310        H318   1.085       .  S
C311        H319   1.087       .  S
C311        C312   1.344       .  D
C312        H320   1.086       .  S
C321        C329   1.492       .  S
C321        C322   1.404       .  A
C321        C326   1.408       .  A
C322        C323   1.405   1_565  A
C322        H331   1.083       .  S
C323        C324   1.410       .  A
C323        H332   1.082       .  S
C324        C327   1.488       .  S
C324        C325   1.401       .  A
C325        C326   1.395   1_545  A
C325        H333   1.084       .  S
C326        H334   1.082       .  S
C327        H335   1.087       .  S
C327        C328   1.346       .  D
C328        H336   1.086       .  S
C329        H337   1.086       .  S
C329        C330   1.346       .  D
C330        H338   1.086       .  S
C339        C347   1.495       .  S
C339        C340   1.410       .  A
C339        C344   1.404       .  A
C340        C341   1.409   1_545  A
C340        H349   1.081       .  S
C341        C342   1.411       .  A
C341        H350   1.081       .  S
C342        C345   1.496       .  S
C342        C343   1.403       .  A
C343        C344   1.396   1_565  A
C343        H351   1.084       .  S
C344        H352   1.084       .  S
C345        H353   1.087       .  S
C345        C346   1.351       .  D
C346        H354   1.084       .  S
C347        H355   1.087       .  S
C347        C348   1.354       .  D
C348        H356   1.084       .  S
C357        C365   1.481       .  S
C357        C358   1.404       .  A
C357        C362   1.405       .  A
C358        C359   1.400       .  A
C358        H367   1.083       .  S
C359        C360   1.405       .  A
C359        H368   1.083       .  S
C360        C363   1.481       .  S
C360        C361   1.403       .  A
C361        C362   1.398       .  A
C361        H369   1.083       .  S
C362        H370   1.083       .  S
C363        H371   1.087       .  S
C363        C364   1.345       .  D
C364        H372   1.086       .  S
C365        H373   1.087       .  S
C365        C366   1.345       .  D
C366        H374   1.086       .  S
C375        C383   1.498       .  S
C375        C376   1.405       .  A
C375        C380   1.409       .  A
C376        C377   1.408       .  A
C376        H385   1.083       .  S
C377        C378   1.412       .  A
C377        H386   1.081       .  S
C378        C381   1.494       .  S
C378        C379   1.402       .  A
C379        C380   1.396       .  A
C379        H387   1.084       .  S
C380        H388   1.082       .  S
C381        H389   1.087       .  S
C381        C382   1.349       .  D
C382        H390   1.084       .  S
C383        H391   1.086       .  S
C383        C384   1.347       .  D
C384        H392   1.086       .  S
C393        C401   1.496       .  S
C393        C394   1.404       .  A
C393        C398   1.411       .  A
C394        C395   1.399       .  A
C394        H403   1.083       .  S
C395        C396   1.404       .  A
C395        H404   1.083       .  S
C396        C399   1.494       .  S
C396        C397   1.409       .  A
C397        C398   1.405       .  A
C397        H405   1.081       .  S
C398        H406   1.080       .  S
C399        H407   1.087       .  S
C399        C400   1.351       .  D
C400        H408   1.084       .  S
C401        H409   1.087       .  S
C401        C402   1.349       .  D
C402        H410   1.084       .  S
C411        C419   1.494       .  S
C411        C412   1.404       .  A
C411        C416   1.409       .  A
C412        C413   1.402       .  A
C412        H421   1.083       .  S
C413        C414   1.410       .  A
C413        H422   1.080       .  S
C414        C417   1.495       .  S
C414        C415   1.404       .  A
C415        C416   1.400       .  A
C415        H423   1.083       .  S
C416        H424   1.081       .  S
C417        H425   1.087       .  S
C417        C418   1.348       .  D
C418        H426   1.083       .  S
C419        H427   1.087       .  S
C419        C420   1.347       .  D
C420        H428   1.085       .  S
C429        C437   1.484       .  S
C429        C430   1.402       .  A
C429        C434   1.407   1_565  A
C430        C431   1.401   1_565  A
C430        H439   1.083       .  S
C431        C432   1.410       .  A
C431        H440   1.082       .  S
C432        C435   1.482       .  S
C432        C433   1.400       .  A
C433        C434   1.394       .  A
C433        H441   1.084       .  S
C434        H442   1.083       .  S
C435        H443   1.087       .  S
C435        C436   1.342       .  D
C436        H444   1.085       .  S
C437        H445   1.086       .  S
C437        C438   1.344       .  D
C438        H446   1.087       .  S
C447        C455   1.482       .  S
C447        C448   1.405   1_545  A
C447        C452   1.405       .  A
C448        C449   1.401       .  A
C448        H457   1.083       .  S
C449        C450   1.405       .  A
C449        H458   1.083       .  S
C450        C453   1.477       .  S
C450        C451   1.401       .  A
C451        C452   1.396   1_565  A
C451        H459   1.084   1_565  S
C452        H460   1.082       .  S
C453        H461   1.088       .  S
C453        C454   1.343       .  D
C454        H462   1.086       .  S
C455        H463   1.087       .  S
C455        C456   1.345       .  D
C456        H464   1.086       .  S
C465        C473   1.484       .  S
C465        C466   1.400       .  A
C465        C470   1.408       .  A
C466        C467   1.393       .  A
C466        H475   1.084       .  S
C467        C468   1.409       .  A
C467        H476   1.081       .  S
C468        C471   1.493       .  S
C468        C469   1.405       .  A
C469        C470   1.405       .  A
C469        H477   1.083       .  S
C470        H478   1.082       .  S
C471        H479   1.086       .  S
C471        C472   1.345       .  D
C472        H480   1.085       .  S
C473        H481   1.087       .  S
C473        C474   1.345       .  D
C474        H482   1.086       .  S
C483        C491   1.477       .  S
C483        C484   1.402       .  A
C483        C488   1.404       .  A
C484        C485   1.397       .  A
C484        H493   1.083       .  S
C485        C486   1.404       .  A
C485        H494   1.083       .  S
C486        C489   1.477       .  S
C486        C487   1.403       .  A
C487        C488   1.399       .  A
C487        H495   1.083       .  S
C488        H496   1.083       .  S
C489        H497   1.088       .  S
C489        C490   1.344       .  D
C490        H498   1.086       .  S
C491        H499   1.088       .  S
C491        C492   1.344       .  D
C492        H500   1.086       .  S
C501        C509   1.480       .  S
C501        C502   1.402       .  A
C501        C506   1.404       .  A
C502        C503   1.399       .  A
C502        H511   1.083       .  S
C503        C504   1.409       .  A
C503        H512   1.080       .  S
C504        C507   1.484       .  S
C504        C505   1.404       .  A
C505        C506   1.393       .  A
C505        H513   1.084       .  S
C506        H514   1.082       .  S
C507        H515   1.087       .  S
C507        C508   1.347       .  D
C508        H516   1.083       .  S
C509        H517   1.087       .  S
C509        C510   1.344       .  D
C510        H518   1.086       .  S
C519        C527   1.487       .  S
C519        C520   1.401       .  A
C519        C524   1.410       .  A
C520        C521   1.395       .  A
C520        H529   1.084       .  S
C521        C522   1.408       .  A
C521        H530   1.082       .  S
C522        C525   1.488       .  S
C522        C523   1.403       .  A
C523        C524   1.403       .  A
C523        H531   1.083       .  S
C524        H532   1.081       .  S
C525        H533   1.086       .  S
C525        C526   1.344       .  D
C526        H534   1.087       .  S
C527        H535   1.087       .  S
C527        C528   1.345       .  D
C528        H536   1.085       .  S
C537        C545   1.498       .  S
C537        C538   1.410       .  A
C537        C542   1.404       .  A
C538        C539   1.408   1_455  A
C538        H547   1.080       .  S
C539        C540   1.411       .  A
C539        H548   1.080       .  S
C540        C543   1.499       .  S
C540        C541   1.404       .  A
C541        C542   1.398   1_655  A
C541        H549   1.083       .  S
C542        H550   1.083       .  S
C543        H551   1.087       .  S
C543        C544   1.351       .  D
C544        H552   1.083       .  S
C545        H553   1.087       .  S
C545        C546   1.352       .  D
C546        H554   1.084       .  S
C555        C563   1.477       .  S
C555        C556   1.404       .  A
C555        C560   1.402   1_455  A
C556        C557   1.400       .  A
C556        H565   1.083       .  S
C557        C558   1.404   1_455  A
C557        H566   1.083       .  S
C558        C561   1.481       .  S
C558        C559   1.405       .  A
C559        C560   1.397       .  A
C559        H567   1.083       .  S
C560        H568   1.083       .  S
C561        H569   1.087       .  S
C561        C562   1.344       .  D
C562        H570   1.087       .  S
C563        H571   1.087       .  S
C563        C564   1.346       .  D
C564        H572   1.086       .  S
C573        C581   1.479       .  S
C573        C574   1.403       .  A
C573        C578   1.405       .  A
C574        C575   1.399       .  A
C574        H583   1.083       .  S
C575        C576   1.404       .  A
C575        H584   1.083       .  S
C576        C579   1.478       .  S
C576        C577   1.403       .  A
C577        C578   1.398       .  A
C577        H585   1.083       .  S
C578        H586   1.083       .  S
C579        H587   1.087       .  S
C579        C580   1.344       .  D
C580        H588   1.087       .  S
C581        H589   1.087       .  S
C581        C582   1.345       .  D
C582        H590   1.087       .  S
C591        C599   1.480       .  S
C591        C592   1.403       .  A
C591        C596   1.406       .  A
C592        C593   1.399       .  A
C592        H601   1.083       .  S
C593        C594   1.404       .  A
C593        H602   1.083       .  S
C594        C597   1.477       .  S
C594        C595   1.402       .  A
C595        C596   1.399       .  A
C595        H603   1.083       .  S
C596        H604   1.083       .  S
C597        H605   1.087       .  S
C597        C598   1.342       .  D
C598        H606   1.087       .  S
C599        H607   1.087       .  S
C599        C600   1.346       .  D
C600        H608   1.087       .  S
Fe609       O625   2.063       .  S
Fe609       O615   2.062       .  S
Fe609       O622   2.063       .  S
Fe609       O614   2.061       .  S
Fe609       O620   1.955       .  S
Fe610       O613   2.052       .  S
Fe610       O617   2.079       .  S
Fe610       O621   2.062       .  S
Fe610       O626   2.075       .  S
Fe610       O620   1.960       .  S
Fe611       O629   2.092       .  S
Fe611       O616   2.068       .  S
Fe611       O623   2.076       .  S
Fe611       O612   2.099       .  S
Fe611       O620   1.960       .  S
O612        C619   1.275       .  A
O613        C627   1.268       .  A
O614        C619   1.270       .  A
O615        C618   1.269       .  A
O616        C628   1.270       .  A
O617        C630   1.270       .  A
C618        O623   1.270       .  A
C618       C1172   1.476       .  S
C619       C1154   1.489       .  S
O621        C624   1.267       .  A
O622        C624   1.270       .  A
C624       C1116   1.475       .  S
O625        C630   1.271       .  A
O626        C628   1.272       .  A
C627        O629   1.273       .  A
C627       C1208   1.478       .  S
C628       C1190   1.476       .  S
C630       C1136   1.479       .  S
Fe631       O647   2.038       .  S
Fe631       O637   2.056       .  S
Fe632       O643   2.069   1_554  S
Fe632       O648   2.079   1_554  S
Fe632       O642   1.970   1_554  S
Fe633       O638   2.064   1_554  S
Fe633       O634   2.076   1_554  S
Fe633       O642   1.969   1_554  S
O634        C641   1.268       .  A
O635        C649   1.268       .  A
O636        C641   1.266       .  A
O637        C640   1.269       .  A
O638        C650   1.269       .  A
O639        C652   1.269       .  A
C640        O645   1.274       .  A
C640       C1080   1.474       .  S
C641       C1100   1.473       .  S
O643        C646   1.271       .  A
O644        C646   1.273       .  A
C646       C1062   1.475       .  S
O647        C652   1.261       .  A
O648        C650   1.269       .  A
C649        O651   1.274       .  A
C649       C1188   1.473       .  S
C650       C1206   1.473       .  S
C652       C1046   1.470       .  S
Fe653       O669   2.066       .  S
Fe653       O659   2.075       .  S
Fe653       O664   1.977       .  S
Fe654       O657   2.072   1_554  S
Fe654       O661   2.087   1_554  S
Fe654       O664   1.976   1_554  S
Fe655       O673   2.081       .  S
Fe655       O667   2.059       .  S
Fe655       O664   1.970       .  S
O656        C663   1.273       .  A
O657        C671   1.272       .  A
O658        C663   1.271       .  A
O659        C662   1.270       .  A
O660        C672   1.267       .  A
O661        C674   1.272       .  A
C662        O667   1.266       .  A
C662       C1170   1.474       .  S
C663       C1152   1.489       .  S
O665        C668   1.269       .  A
O666        C668   1.270       .  A
C668        C972   1.477       .  S
O669        C674   1.271       .  A
O670        C672   1.272       .  A
C671        O673   1.272       .  A
C671       C1010   1.485       .  S
C672       C1026   1.482       .  S
C674        C990   1.488       .  S
Fe675       O691   2.044       .  S
Fe675       O681   2.057       .  S
Fe675       O688   2.066       .  S
Fe675       O680   2.059       .  S
Fe675       O686   1.971       .  S
Fe676       O679   2.094       .  S
Fe676       O683   2.089       .  S
Fe676       O687   2.093       .  S
Fe676       O692   2.080       .  S
Fe676       O686   1.986       .  S
Fe677       O695   2.058       .  S
Fe677       O682   2.065       .  S
Fe677       O689   2.082       .  S
Fe677       O678   2.069       .  S
Fe677       O686   1.979       .  S
O678        C685   1.266       .  A
O679        C693   1.276       .  A
O680        C685   1.266       .  A
O681        C684   1.269       .  A
O682        C694   1.269       .  A
O683        C696   1.271       .  A
C684        O689   1.270       .  A
C684       C1082   1.481       .  S
C685       C1098   1.472       .  S
O687        C690   1.276       .  A
O688        C690   1.273       .  A
C690        C954   1.490       .  S
O691        C696   1.263       .  A
O692        C694   1.270       .  A
C693        O695   1.269       .  A
C693       C1028   1.481       .  S
C694       C1008   1.487       .  S
C696        C938   1.477       .  S
Fe697       O713   2.046   1_554  S
Fe697       O703   2.053   1_554  S
Fe698       O701   2.058   1_554  S
Fe698       O705   2.089   1_554  S
Fe699       O717   2.077       .  S
Fe699       O711   2.061       .  S
O700        C707   1.271       .  A
O701        C715   1.266       .  A
O702        C707   1.265       .  A
O703        C706   1.267       .  A
O704        C716   1.264       .  A
O705        C718   1.273       .  A
C706        O711   1.265       .  A
C706        C884   1.467       .  S
C707        C866   1.476       .  S
O709        C712   1.267       .  A
O710        C712   1.265       .  A
C712       C1118   1.470       .  S
O713        C718   1.265       .  A
O714        C716   1.273       .  A
C715        O717   1.272       .  A
C715        C918   1.479       .  S
C716        C900   1.470       .  S
C718       C1134   1.474       .  S
Fe719       O735   2.055       .  S
Fe719       O725   2.071       .  S
Fe719       O732   2.065       .  S
Fe719       O724   2.060       .  S
Fe719       O730   1.976       .  S
Fe720       O723   2.079       .  S
Fe720       O727   2.073       .  S
Fe720       O731   2.070       .  S
Fe720       O736   2.062       .  S
Fe720       O730   1.982       .  S
Fe721       O739   2.048       .  S
Fe721       O726   2.068       .  S
Fe721       O733   2.066       .  S
Fe721       O722   2.063       .  S
Fe721       O730   1.971       .  S
O722        C729   1.265       .  A
O723        C737   1.270       .  A
O724        C729   1.268       .  A
O725        C728   1.271       .  A
O726        C738   1.273       .  A
O727        C740   1.272       .  A
C728        O733   1.269       .  A
C728       C1064   1.476       .  S
C729       C1044   1.475       .  S
O731        C734   1.268       .  A
O732        C734   1.268       .  A
C734        C828   1.476       .  S
O735        C740   1.267       .  A
O736        C738   1.269       .  A
C737        O739   1.263       .  A
C737        C920   1.472       .  S
C738        C902   1.473       .  S
C740        C846   1.473       .  S
Fe741       O757   2.064   1_554  S
Fe741       O747   2.060   1_554  S
Fe742       O753   2.069       .  S
Fe742       O758   2.048       .  S
Fe742       O752   1.975       .  S
Fe743       O748   2.091       .  S
Fe743       O744   2.078       .  S
Fe743       O752   1.983       .  S
O744        C751   1.270       .  A
O745        C759   1.269       .  A
O746        C751   1.271       .  A
O747        C750   1.269       .  A
O748        C760   1.274       .  A
O749        C762   1.267       .  A
C750        O755   1.274       .  A
C750        C956   1.492       .  S
C751        C936   1.482       .  S
O753        C756   1.267       .  A
O754        C756   1.268       .  A
C756        C830   1.474       .  S
O757        C762   1.270       .  A
O758        C760   1.265       .  A
C759        O761   1.272       .  A
C759        C810   1.483       .  S
C760        C792   1.477       .  S
C762        C848   1.474       .  S
Fe763       O779   2.041       .  S
Fe763       O769   2.058       .  S
Fe763       O776   2.065       .  S
Fe763       O768   2.056       .  S
Fe763       O774   1.975       .  S
Fe764       O767   2.078       .  S
Fe764       O771   2.113       .  S
Fe764       O775   2.068       .  S
Fe764       O780   2.098       .  S
Fe764       O774   1.987       .  S
Fe765       O783   2.062       .  S
Fe765       O770   2.042       .  S
Fe765       O777   2.058       .  S
Fe765       O766   2.079       .  S
Fe765       O774   1.973       .  S
O766        C773   1.270       .  A
O767        C781   1.271       .  A
O768        C773   1.268       .  A
O769        C772   1.267       .  A
O770        C782   1.265       .  A
O771        C784   1.278       .  A
C772        O777   1.265       .  A
C772        C882   1.470       .  S
C773        C864   1.475       .  S
O775        C778   1.267       .  A
O776        C778   1.268       .  A
C778        C974   1.475       .  S
O779        C784   1.265       .  A
O780        C782   1.276       .  A
C781        O783   1.267       .  A
C781        C812   1.479       .  S
C782        C794   1.476       .  S
C784        C992   1.479       .  S
C785        C793   1.491       .  S
C785        C786   1.402       .  A
C785        C790   1.410       .  A
C786        C787   1.400       .  A
C786        H795   1.083       .  S
C787        C788   1.411       .  A
C787        H796   1.081       .  S
C788        C791   1.491       .  S
C788        C789   1.401       .  A
C789        C790   1.399       .  A
C789        H797   1.083       .  S
C790        H798   1.082       .  S
C791        H799   1.087       .  S
C791        C792   1.343       .  D
C792        H800   1.085       .  S
C793        H801   1.087       .  S
C793        C794   1.343       .  D
C794        H802   1.086       .  S
C803        C811   1.493       .  S
C803        C804   1.405       .  A
C803        C808   1.408       .  A
C804        C805   1.403       .  A
C804        H813   1.083       .  S
C805        C806   1.410       .  A
C805        H814   1.080       .  S
C806        C809   1.494       .  S
C806        C807   1.404       .  A
C807        C808   1.398       .  A
C807        H815   1.083       .  S
C808        H816   1.081       .  S
C809        H817   1.087       .  S
C809        C810   1.349       .  D
C810        H818   1.083       .  S
C811        H819   1.087       .  S
C811        C812   1.347       .  D
C812        H820   1.085       .  S
C821        C829   1.478       .  S
C821        C822   1.403       .  A
C821        C826   1.404       .  A
C822        C823   1.399       .  A
C822        H831   1.083       .  S
C823        C824   1.405       .  A
C823        H832   1.083       .  S
C824        C827   1.480       .  S
C824        C825   1.403       .  A
C825        C826   1.400       .  A
C825        H833   1.083       .  S
C826        H834   1.083       .  S
C827        H835   1.087       .  S
C827        C828   1.344       .  D
C828        H836   1.087       .  S
C829        H837   1.087       .  S
C829        C830   1.343       .  D
C830        H838   1.087       .  S
C839        C847   1.486       .  S
C839        C840   1.403       .  A
C839        C844   1.409       .  A
C840        C841   1.397       .  A
C840        H849   1.083       .  S
C841        C842   1.407       .  A
C841        H850   1.082       .  S
C842        C845   1.482       .  S
C842        C843   1.401       .  A
C843        C844   1.397       .  A
C843        H851   1.083       .  S
C844        H852   1.081       .  S
C845        H853   1.087       .  S
C845        C846   1.344       .  D
C846        H854   1.086       .  S
C847        H855   1.087       .  S
C847        C848   1.344       .  D
C848        H856   1.084       .  S
C857        C865   1.480       .  S
C857        C858   1.404   1_455  A
C857        C862   1.405       .  A
C858        C859   1.400       .  A
C858        H867   1.083       .  S
C859        C860   1.405       .  A
C859        H868   1.083       .  S
C860        C863   1.480       .  S
C860        C861   1.403   1_655  A
C861        C862   1.399       .  A
C861        H869   1.083       .  S
C862        H870   1.083       .  S
C863        H871   1.087       .  S
C863        C864   1.344       .  D
C864        H872   1.086       .  S
C865        H873   1.088       .  S
C865        C866   1.346       .  D
C866        H874   1.086       .  S
C875        C883   1.472       .  S
C875        C876   1.401   1_455  A
C875        C880   1.404       .  A
C876        C877   1.395       .  A
C876        H885   1.083       .  S
C877        C878   1.405       .  A
C877        H886   1.083       .  S
C878        C881   1.473       .  S
C878        C879   1.401   1_655  A
C879        C880   1.395       .  A
C879        H887   1.083       .  S
C880        H888   1.083       .  S
C881        H889   1.087       .  S
C881        C882   1.342       .  D
C882        H890   1.087       .  S
C883        H891   1.088       .  S
C883        C884   1.342       .  D
C884        H892   1.087       .  S
C893        C901   1.482       .  S
C893        C894   1.400       .  A
C893        C898   1.410       .  A
C894        C895   1.394       .  A
C894        H903   1.084       .  S
C895        C896   1.408       .  A
C895        H904   1.082       .  S
C896        C899   1.483       .  S
C896        C897   1.401       .  A
C897        C898   1.400       .  A
C897        H905   1.083       .  S
C898        H906   1.082       .  S
C899        H907   1.086       .  S
C899        C900   1.342       .  D
C900        H908   1.087       .  S
C901        H909   1.087       .  S
C901        C902   1.342       .  D
C902        H910   1.085       .  S
C911        C919   1.489       .  S
C911        C912   1.403       .  A
C911        C916   1.409       .  A
C912        C913   1.402       .  A
C912        H921   1.083       .  S
C913        C914   1.410       .  A
C913        H922   1.081       .  S
C914        C917   1.487       .  S
C914        C915   1.400       .  A
C915        C916   1.395       .  A
C915        H923   1.084       .  S
C916        H924   1.082       .  S
C917        H925   1.087       .  S
C917        C918   1.344       .  D
C918        H926   1.085       .  S
C919        H927   1.087       .  S
C919        C920   1.344       .  D
C920        H928   1.086       .  S
C929        C937   1.492       .  S
C929        C930   1.404       .  A
C929        C934   1.408       .  A
C930        C931   1.405   1_565  A
C930        H939   1.083       .  S
C931        C932   1.410       .  A
C931        H940   1.082       .  S
C932        C935   1.487       .  S
C932        C933   1.401       .  A
C933        C934   1.395   1_545  A
C933        H941   1.084       .  S
C934        H942   1.082       .  S
C935        H943   1.087       .  S
C935        C936   1.346       .  D
C936        H944   1.086       .  S
C937        H945   1.086       .  S
C937        C938   1.345       .  D
C938        H946   1.086       .  S
C947        C955   1.495       .  S
C947        C948   1.410       .  A
C947        C952   1.404       .  A
C948        C949   1.409   1_545  A
C948        H957   1.081       .  S
C949        C950   1.411       .  A
C949        H958   1.081       .  S
C950        C953   1.496       .  S
C950        C951   1.403       .  A
C951        C952   1.396   1_565  A
C951        H959   1.084       .  S
C952        H960   1.084       .  S
C953        H961   1.087       .  S
C953        C954   1.351       .  D
C954        H962   1.084       .  S
C955        H963   1.087       .  S
C955        C956   1.354       .  D
C956        H964   1.084       .  S
C965        C973   1.481       .  S
C965        C966   1.404       .  A
C965        C970   1.405       .  A
C966        C967   1.400       .  A
C966        H975   1.083       .  S
C967        C968   1.405       .  A
C967        H976   1.083       .  S
C968        C971   1.481       .  S
C968        C969   1.403       .  A
C969        C970   1.398       .  A
C969        H977   1.083       .  S
C970        H978   1.083       .  S
C971        H979   1.087       .  S
C971        C972   1.345       .  D
C972        H980   1.086       .  S
C973        H981   1.087       .  S
C973        C974   1.345       .  D
C974        H982   1.086       .  S
C983        C991   1.497       .  S
C983        C984   1.405       .  A
C983        C988   1.409       .  A
C984        C985   1.408       .  A
C984        H993   1.083       .  S
C985        C986   1.411       .  A
C985        H994   1.081       .  S
C986        C989   1.494       .  S
C986        C987   1.402       .  A
C987        C988   1.396       .  A
C987        H995   1.084       .  S
C988        H996   1.082       .  S
C989        H997   1.087       .  S
C989        C990   1.349       .  D
C990        H998   1.084       .  S
C991        H999   1.086       .  S
C991        C992   1.347       .  D
C992       H1000   1.086       .  S
C1001      C1009   1.496       .  S
C1001      C1002   1.404       .  A
C1001      C1006   1.411       .  A
C1002      C1003   1.399       .  A
C1002      H1011   1.083       .  S
C1003      C1004   1.404       .  A
C1003      H1012   1.083       .  S
C1004      C1007   1.494       .  S
C1004      C1005   1.409       .  A
C1005      C1006   1.404       .  A
C1005      H1013   1.081       .  S
C1006      H1014   1.080       .  S
C1007      H1015   1.087       .  S
C1007      C1008   1.351       .  D
C1008      H1016   1.084       .  S
C1009      H1017   1.087       .  S
C1009      C1010   1.349       .  D
C1010      H1018   1.084       .  S
C1019      C1027   1.494       .  S
C1019      C1020   1.404       .  A
C1019      C1024   1.409       .  A
C1020      C1021   1.402       .  A
C1020      H1029   1.083       .  S
C1021      C1022   1.410       .  A
C1021      H1030   1.080       .  S
C1022      C1025   1.495       .  S
C1022      C1023   1.404       .  A
C1023      C1024   1.399       .  A
C1023      H1031   1.083       .  S
C1024      H1032   1.081       .  S
C1025      H1033   1.087       .  S
C1025      C1026   1.348       .  D
C1026      H1034   1.083       .  S
C1027      H1035   1.087       .  S
C1027      C1028   1.347       .  D
C1028      H1036   1.085       .  S
C1037      C1045   1.484       .  S
C1037      C1038   1.402       .  A
C1037      C1042   1.407   1_565  A
C1038      C1039   1.401   1_565  A
C1038      H1047   1.083       .  S
C1039      C1040   1.410       .  A
C1039      H1048   1.082       .  S
C1040      C1043   1.482       .  S
C1040      C1041   1.400       .  A
C1041      C1042   1.394       .  A
C1041      H1049   1.084       .  S
C1042      H1050   1.083       .  S
C1043      H1051   1.087       .  S
C1043      C1044   1.342       .  D
C1044      H1052   1.085       .  S
C1045      H1053   1.086       .  S
C1045      C1046   1.344       .  D
C1046      H1054   1.087       .  S
C1055      C1063   1.482       .  S
C1055      C1056   1.405   1_545  A
C1055      C1060   1.405       .  A
C1056      C1057   1.401       .  A
C1056      H1065   1.083       .  S
C1057      C1058   1.405       .  A
C1057      H1066   1.083       .  S
C1058      C1061   1.477       .  S
C1058      C1059   1.401       .  A
C1059      C1060   1.396   1_565  A
C1059      H1067   1.084   1_565  S
C1060      H1068   1.082       .  S
C1061      H1069   1.088       .  S
C1061      C1062   1.343       .  D
C1062      H1070   1.086       .  S
C1063      H1071   1.087       .  S
C1063      C1064   1.345       .  D
C1064      H1072   1.086       .  S
C1073      C1081   1.484       .  S
C1073      C1074   1.400       .  A
C1073      C1078   1.408       .  A
C1074      C1075   1.393       .  A
C1074      H1083   1.084       .  S
C1075      C1076   1.409       .  A
C1075      H1084   1.081       .  S
C1076      C1079   1.493       .  S
C1076      C1077   1.405       .  A
C1077      C1078   1.405       .  A
C1077      H1085   1.083       .  S
C1078      H1086   1.082       .  S
C1079      H1087   1.086       .  S
C1079      C1080   1.345       .  D
C1080      H1088   1.085       .  S
C1081      H1089   1.087       .  S
C1081      C1082   1.345       .  D
C1082      H1090   1.086       .  S
C1091      C1099   1.477       .  S
C1091      C1092   1.402       .  A
C1091      C1096   1.404       .  A
C1092      C1093   1.397       .  A
C1092      H1101   1.083       .  S
C1093      C1094   1.404       .  A
C1093      H1102   1.083       .  S
C1094      C1097   1.477       .  S
C1094      C1095   1.403       .  A
C1095      C1096   1.399       .  A
C1095      H1103   1.083       .  S
C1096      H1104   1.083       .  S
C1097      H1105   1.088       .  S
C1097      C1098   1.344       .  D
C1098      H1106   1.086       .  S
C1099      H1107   1.088       .  S
C1099      C1100   1.344       .  D
C1100      H1108   1.086       .  S
C1109      C1117   1.480       .  S
C1109      C1110   1.402       .  A
C1109      C1114   1.404       .  A
C1110      C1111   1.399       .  A
C1110      H1119   1.083       .  S
C1111      C1112   1.409       .  A
C1111      H1120   1.080       .  S
C1112      C1115   1.484       .  S
C1112      C1113   1.404       .  A
C1113      C1114   1.393       .  A
C1113      H1121   1.084       .  S
C1114      H1122   1.082       .  S
C1115      H1123   1.087       .  S
C1115      C1116   1.347       .  D
C1116      H1124   1.083       .  S
C1117      H1125   1.087       .  S
C1117      C1118   1.344       .  D
C1118      H1126   1.086       .  S
C1127      C1135   1.487       .  S
C1127      C1128   1.401       .  A
C1127      C1132   1.410       .  A
C1128      C1129   1.395       .  A
C1128      H1137   1.084       .  S
C1129      C1130   1.408       .  A
C1129      H1138   1.082       .  S
C1130      C1133   1.488       .  S
C1130      C1131   1.403       .  A
C1131      C1132   1.403       .  A
C1131      H1139   1.083       .  S
C1132      H1140   1.081       .  S
C1133      H1141   1.086       .  S
C1133      C1134   1.344       .  D
C1134      H1142   1.086       .  S
C1135      H1143   1.087       .  S
C1135      C1136   1.345       .  D
C1136      H1144   1.085       .  S
C1145      C1153   1.497       .  S
C1145      C1146   1.410       .  A
C1145      C1150   1.404       .  A
C1146      C1147   1.407   1_455  A
C1146      H1155   1.081       .  S
C1147      C1148   1.411       .  A
C1147      H1156   1.080       .  S
C1148      C1151   1.499       .  S
C1148      C1149   1.404       .  A
C1149      C1150   1.398   1_655  A
C1149      H1157   1.083       .  S
C1150      H1158   1.083       .  S
C1151      H1159   1.087       .  S
C1151      C1152   1.351       .  D
C1152      H1160   1.083       .  S
C1153      H1161   1.087       .  S
C1153      C1154   1.351       .  D
C1154      H1162   1.084       .  S
C1163      C1171   1.477       .  S
C1163      C1164   1.404       .  A
C1163      C1168   1.402   1_455  A
C1164      C1165   1.400       .  A
C1164      H1173   1.083       .  S
C1165      C1166   1.404   1_455  A
C1165      H1174   1.083       .  S
C1166      C1169   1.481       .  S
C1166      C1167   1.405       .  A
C1167      C1168   1.397       .  A
C1167      H1175   1.083       .  S
C1168      H1176   1.083       .  S
C1169      H1177   1.087       .  S
C1169      C1170   1.344       .  D
C1170      H1178   1.087       .  S
C1171      H1179   1.087       .  S
C1171      C1172   1.346       .  D
C1172      H1180   1.086       .  S
C1181      C1189   1.479       .  S
C1181      C1182   1.403       .  A
C1181      C1186   1.405       .  A
C1182      C1183   1.399       .  A
C1182      H1191   1.083       .  S
C1183      C1184   1.404       .  A
C1183      H1192   1.083       .  S
C1184      C1187   1.478       .  S
C1184      C1185   1.403       .  A
C1185      C1186   1.398       .  A
C1185      H1193   1.083       .  S
C1186      H1194   1.083       .  S
C1187      H1195   1.087       .  S
C1187      C1188   1.344       .  D
C1188      H1196   1.087       .  S
C1189      H1197   1.087       .  S
C1189      C1190   1.345       .  D
C1190      H1198   1.086       .  S
C1199      C1207   1.480       .  S
C1199      C1200   1.403       .  A
C1199      C1204   1.406       .  A
C1200      C1201   1.399       .  A
C1200      H1209   1.083       .  S
C1201      C1202   1.404       .  A
C1201      H1210   1.083       .  S
C1202      C1205   1.477       .  S
C1202      C1203   1.402       .  A
C1203      C1204   1.399       .  A
C1203      H1211   1.083       .  S
C1204      H1212   1.083       .  S
C1205      H1213   1.087       .  S
C1205      C1206   1.342       .  D
C1206      H1214   1.087       .  S
C1207      H1215   1.087       .  S
C1207      C1208   1.346       .  D
C1208      H1216   1.087       .  S
