geometry optimzed in LAMMPS
_audit_creation_date              2020-11-30 
_audit_creation_method            'lammps2cif' 
_symmetry_space_group_name_H-M    'P1' 
_symmetry_Int_Tables_number       1 
_symmetry_cell_setting            triclinic 
loop_ 
_symmetry_equiv_pos_as_xyz 
  x,y,z 
_cell_length_a                    47.0240128 
_cell_length_b                    47.05367681757488 
_cell_length_c                    44.480239767544816 
_cell_angle_alpha                 90.51122287871704 
_cell_angle_beta                  89.58888562644782 
_cell_angle_gamma                 120.95376848364924 
loop_ 
_atom_site_label 
_atom_site_type_symbol 
_atom_site_fract_x 
_atom_site_fract_y 
_atom_site_fract_z 
_atom_site_charge 
O1          O  0.28387074  0.97081956  0.11598322    -0.85700
O2          O  0.31089589  0.93255854  0.10753366    -0.82700
C3          C  0.31371097  0.90798337  0.10157821     0.97800
O4          O  0.29550293  0.88707870  0.08165858    -0.82800
O5          O  0.23460799  0.85427426  0.11021016    -0.85400
C6          C  0.20732867  0.84825699  0.12126690     1.02300
O7          O  0.19548292  0.86633037  0.11450857    -0.78200
O8          O  0.23865309  0.92980442  0.13590134    -0.78300
C9          C  0.26510786  0.95745290  0.13848356     1.02300
O10         O  0.27269827  0.96788645  0.05214627    -0.85700
O11         O  0.30653995  0.93581285  0.04298627    -0.82700
C12         C  0.28834256  0.91615633  0.02248010     0.97800
O13         O  0.26085390  0.89113434  0.02891475    -0.82800
O14         O  0.20113273  0.85328769  0.05614207    -0.85400
C15         C  0.18471612  0.86672674  0.04891936     1.02300
O16         O  0.19303068  0.89515281  0.05868825    -0.78200
O17         O  0.23125485  0.95835466  0.08147517    -0.78300
C18         C  0.25083919  0.97430118  0.05999817     1.02200
Cr19       Cr  0.29069736  0.94904038  0.07982896     1.93700
Cr20       Cr  0.24850953  0.87426769  0.07010596     1.93200
Cr21       Cr  0.21718855  0.91237644  0.09668623     1.39100
O22         O  0.25207767  0.91180521  0.08244237    -1.23400
O23         O  0.34702537  0.95677634  0.78528452    -0.85700
O24         O  0.38071369  0.02382454  0.77785493    -0.82700
C25         C  0.40262942  0.05277582  0.77067407     0.97800
O26         O  0.42304097  0.05750941  0.74959891    -0.82800
O27         O  0.46162080  0.03471605  0.77392837    -0.85400
C28         C  0.46936845  0.01483974  0.78450910     1.02300
O29         O  0.45361878  0.98458180  0.77638579    -0.78200
O30         O  0.39216946  0.95923965  0.80109136    -0.78300
C31         C  0.36415160  0.95538487  0.80644367     1.02300
O32         O  0.34637350  0.95010026  0.72038952    -0.85700
O33         O  0.37311296  0.01605475  0.71320907    -0.82700
C34         C  0.39196133  0.02046772  0.69100823     0.97800
O35         O  0.41855643  0.02068643  0.69502897    -0.82800
O36         O  0.46158537  0.00320089  0.71788876    -0.85400
C37         C  0.44954360  0.97312309  0.70993232     1.02300
O38         O  0.42233713  0.95108127  0.72082365    -0.78200
O39         O  0.36077018  0.92056263  0.74700323    -0.78300
C40         C  0.34332173  0.92267379  0.72645928     1.02200
Cr41       Cr  0.36458162  0.98689679  0.74916410     1.93700
Cr42       Cr  0.43867439  0.02648357  0.73503248     1.93200
Cr43       Cr  0.40691206  0.95620946  0.76048123     1.39100
O44         O  0.40350376  0.98991046  0.74827987    -1.23400
O45         O  0.03456325  0.34256452  0.12888211    -0.85700
O46         O  0.05887364  0.38648914  0.08152434    -0.82700
C47         C  0.08415011  0.40693452  0.09604700     0.97800
O48         O  0.10746112  0.40132251  0.09954035    -0.82800
O49         O  0.14002483  0.36643801  0.10384619    -0.85400
C50         C  0.13477863  0.35247887  0.12905138     1.02300
O51         O  0.10615374  0.32914060  0.13607204    -0.78200
O52         O  0.03827549  0.29864927  0.13810048    -0.78300
C53         C  0.03192922  0.32065535  0.14679699     1.02300
O54         O  0.00352320  0.28904601  0.08801831    -0.85700
O55         O  0.03683844  0.33268894  0.04069310    -0.82700
C56         C  0.06083688  0.35476604  0.02552121     0.97800
O57         O  0.08787767  0.37499883  0.03843112    -0.82800
O58         O  0.11576164  0.33682224  0.04635275    -0.85400
C59         C  0.11488645  0.31063942  0.05438249     1.02300
O60         O  0.10270860  0.29777046  0.07963623    -0.78200
O61         O  0.03527696  0.26901174  0.07884886    -0.78300
C62         C  0.00719446  0.26619723  0.07770619     1.02200
Cr63       Cr  0.03619216  0.33744883  0.08500236     1.93700
Cr64       Cr  0.11003893  0.36766105  0.07326094     1.93200
Cr65       Cr  0.07056664  0.30112218  0.10680245     1.39100
O66         O  0.07261178  0.33532615  0.08847905    -1.23400
O67         O  0.34695024  0.29803245  0.88315828    -0.85700
O68         O  0.27991208  0.26511174  0.87832268    -0.82700
C69         C  0.27606564  0.24559563  0.85685168     0.97800
O70         O  0.27888603  0.22084396  0.86162097    -0.82800
O71         O  0.30333758  0.18379461  0.88487755    -0.85400
C72         C  0.33346672  0.19766872  0.87624673     1.02300
O73         O  0.35428953  0.22630649  0.88562514    -0.78200
O74         O  0.38048346  0.28911575  0.90997833    -0.78300
C75         C  0.37577690  0.30480996  0.88934523     1.02300
O76         O  0.34269925  0.29948559  0.94797924    -0.85700
O77         O  0.27627514  0.26091808  0.94317450    -0.82700
C78         C  0.24784918  0.23679082  0.93788282     0.97800
O79         O  0.24355949  0.21593100  0.91734332    -0.82800
O80         O  0.27288718  0.18371441  0.94166094    -0.85400
C81         C  0.29486156  0.17858109  0.95148243     1.02300
O82         O  0.32460764  0.19604803  0.94228380    -0.78200
O83         O  0.34463099  0.25725099  0.96524127    -0.78300
C84         C  0.34558142  0.28411030  0.96983004     1.02200
Cr85       Cr  0.31150055  0.27824659  0.91309348     1.93700
Cr86       Cr  0.27706682  0.20370189  0.90207757     1.93200
Cr87       Cr  0.34863608  0.24228436  0.92495395     1.39100
O88         O  0.31243247  0.24131063  0.91319663    -1.23400
O89         O  0.94907395  0.29574710  0.46402274    -0.85700
O90         O  0.98180835  0.28507370  0.41829856    -0.82700
C91         C  0.97920320  0.25932604  0.42946071     0.97800
O92         O  0.95176880  0.23242094  0.42801864    -0.82800
O93         O  0.88408882  0.19054175  0.42822383    -0.85400
C94         C  0.87264339  0.19168055  0.45378203     1.02300
O95         O  0.87205087  0.21711630  0.46208118    -0.78200
O96         O  0.89744496  0.28367881  0.46836888    -0.78300
C97         C  0.92547404  0.29284662  0.47991696     1.02300
O98         O  0.92370113  0.32296601  0.42281745    -0.85700
O99         O  0.94923630  0.30363243  0.37645361    -0.82700
C100        C  0.95196483  0.28380979  0.35915101     0.97800
O101        O  0.94715588  0.25627596  0.36864726    -0.82800
O102        O  0.87986915  0.21721859  0.37153909    -0.85400
C103        C  0.85110940  0.21037560  0.37899531     1.02300
O104        O  0.84547401  0.21730031  0.40498625    -0.78200
O105        O  0.87496092  0.28484457  0.40713402    -0.78300
C106        C  0.89759949  0.31489157  0.40849227     1.02200
Cr107      Cr  0.94833909  0.29889404  0.42028742     1.93700
Cr108      Cr  0.91564012  0.22644204  0.40044599     1.93200
Cr109      Cr  0.87524721  0.25146357  0.43445029     1.39100
O110        O  0.91284372  0.25854107  0.41838793    -1.23400
O111        O  0.33599293  0.38025526  0.25133163    -0.85700
O112        O  0.36089789  0.36129821  0.20325231    -0.82700
C113        C  0.38198780  0.36021631  0.18622079     0.97800
O114        O  0.41006838  0.36750193  0.19659945    -0.82800
O115        O  0.44241111  0.43536105  0.20063059    -0.85400
C116        C  0.44716298  0.46307449  0.20951501     1.02300
O117        O  0.43863581  0.46635099  0.23573689    -0.78200
O118        O  0.37063586  0.43148055  0.23880495    -0.78300
C119        C  0.34148142  0.40686074  0.23960794     1.02300
O120        O  0.36707890  0.35820074  0.29186532    -0.85700
O121        O  0.38370831  0.33173469  0.24412025    -0.82700
C122        C  0.41001062  0.33662657  0.25610074     0.97800
O123        O  0.43523971  0.36555587  0.25623862    -0.82800
O124        O  0.47192380  0.43459137  0.25605042    -0.85400
C125        C  0.46929309  0.44335847  0.28233054     1.02300
O126        O  0.44199617  0.43896761  0.29188674    -0.78200
O127        O  0.37470746  0.40785775  0.29840360    -0.78300
C128        C  0.36793467  0.38011016  0.30908693     1.02200
Cr129      Cr  0.36466208  0.36065722  0.24760710     1.93700
Cr130      Cr  0.43738463  0.40041679  0.22877010     1.93200
Cr131      Cr  0.40612159  0.43364774  0.26488176     1.39100
O132        O  0.40296299  0.39856491  0.24698524    -1.23400
O133        O  0.97261801  0.35299692  0.71442015    -0.85700
O134        O  0.03883733  0.38884072  0.72349256    -0.82700
C135        C  0.06711122  0.41160260  0.73134851     0.97800
O136        O  0.07038244  0.43212884  0.75180273    -0.82800
O137        O  0.04379720  0.46734892  0.72695992    -0.85400
C138        C  0.02261658  0.47334557  0.71639613     1.02300
O139        O  0.99257583  0.45649558  0.72472441    -0.78200
O140        O  0.97216261  0.39669615  0.69865922    -0.78300
C141        C  0.96986485  0.36933834  0.69336033     1.02300
O142        O  0.96358443  0.35072503  0.77879687    -0.85700
O143        O  0.02980074  0.38047686  0.78759430    -0.82700
C144        C  0.03292218  0.39896859  0.80970182     0.97800
O145        O  0.03193773  0.42487832  0.80564063    -0.82800
O146        O  0.01055939  0.46432479  0.78283517    -0.85400
C147        C  0.98017712  0.44982281  0.79050036     1.02300
O148        O  0.95957138  0.42230164  0.77907114    -0.78200
O149        O  0.93295027  0.36226225  0.75072146    -0.78300
C150        C  0.93553470  0.34529747  0.77129708     1.02200
Cr151      Cr  0.00122477  0.37087254  0.75113140     1.93700
Cr152      Cr  0.03684935  0.44471245  0.76578929     1.93200
Cr153      Cr  0.96680035  0.40938766  0.73922405     1.39100
O154        O  0.00176089  0.40845398  0.75195459    -1.23400
O155        O  0.33389887  0.03146521  0.36976782    -0.85700
O156        O  0.38027203  0.05115438  0.41576005    -0.82700
C157        C  0.40173164  0.07757069  0.40333643     0.97800
O158        O  0.39745748  0.10188853  0.40236794    -0.82800
O159        O  0.36541783  0.13696873  0.40093312    -0.85400
C160        C  0.35106760  0.13298135  0.37599215     1.02300
O161        O  0.32605476  0.10531210  0.36891564    -0.78200
O162        O  0.29059033  0.03727077  0.36572709    -0.78300
C163        C  0.31163192  0.03135901  0.35385452     1.02300
O164        O  0.28211631  0.00122653  0.41322855    -0.85700
O165        O  0.32868312  0.02966608  0.45898005    -0.82700
C166        C  0.35087471  0.05257250  0.47507388     0.97800
O167        O  0.37185482  0.08017878  0.46345556    -0.82800
O168        O  0.33689814  0.11172277  0.45902050    -0.85400
C169        C  0.31160288  0.11294770  0.45188996     1.02300
O170        O  0.29827982  0.10295994  0.42648644    -0.78200
O171        O  0.26602397  0.03528593  0.42678185    -0.78300
C172        C  0.26143770  0.00644535  0.42637155     1.02200
Cr173      Cr  0.33126885  0.03120476  0.41438698     1.93700
Cr174      Cr  0.36551504  0.10500460  0.43017360     1.93200
Cr175      Cr  0.29768636  0.06994426  0.39818232     1.39100
O176        O  0.33157502  0.06910135  0.41419329    -1.23400
O177        O  0.30138743  0.35563226  0.61153467    -0.85700
O178        O  0.26945876  0.28933942  0.61975383    -0.82700
C179        C  0.24860552  0.28582390  0.63972445     0.97800
O180        O  0.22350126  0.28710251  0.63255606    -0.82800
O181        O  0.18823590  0.31080337  0.60632434    -0.85400
C182        C  0.20252091  0.34082006  0.61506868     1.02300
O183        O  0.23081074  0.36171932  0.60493390    -0.78200
O184        O  0.29368756  0.38724388  0.58118170    -0.78300
C185        C  0.30821653  0.38397410  0.60360844     1.02300
O186        O  0.30494973  0.34717293  0.54703316    -0.85700
O187        O  0.26737779  0.28104469  0.55524588    -0.82700
C188        C  0.24276311  0.25303586  0.56088004     0.97800
O189        O  0.22018316  0.24990768  0.57883116    -0.82800
O190        O  0.18812001  0.27848324  0.55089295    -0.85400
C191        C  0.18353451  0.30054654  0.54020402     1.02300
O192        O  0.20161194  0.33050854  0.54841911    -0.78200
O193        O  0.26352089  0.34893361  0.52702127    -0.78300
C194        C  0.29050012  0.34951737  0.52405911     1.02200
Cr195      Cr  0.28309067  0.31837084  0.58318290     1.93700
Cr196      Cr  0.20781910  0.28394493  0.59121127     1.93200
Cr197      Cr  0.24738021  0.35459768  0.56633582     1.39100
O198        O  0.24592804  0.31877254  0.58010048    -1.23400
O199        O  0.00913112  0.71421167  0.55573077    -0.85700
O200        O  0.03788668  0.67801354  0.54520306    -0.82700
C201        C  0.05458824  0.69400855  0.52242057     0.97800
O202        O  0.08124813  0.72130890  0.52582650    -0.82800
O203        O  0.12625991  0.78234675  0.55037192    -0.85400
C204        C  0.11472838  0.80073669  0.54421593     1.02300
O205        O  0.08696122  0.79397423  0.55460916    -0.78200
O206        O  0.02516636  0.75981873  0.58179951    -0.78300
C207        C  0.00604769  0.73842820  0.56255661     1.02300
O208        O  0.01328661  0.70862019  0.61992140    -0.85700
O209        O  0.04873256  0.67854968  0.60917450    -0.82700
C210        C  0.07065066  0.67281336  0.60009965     0.97800
O211        O  0.08853657  0.68813987  0.57756013    -0.82800
O212        O  0.12691828  0.74950021  0.60382891    -0.85400
C213        C  0.13515216  0.77731893  0.61522415     1.02300
O214        O  0.11882398  0.79124369  0.60895758    -0.78200
O215        O  0.05781224  0.75396104  0.63470656    -0.78300
C216        C  0.03019561  0.72874844  0.64068897     1.02200
Cr217      Cr  0.03000835  0.69750629  0.58242879     1.93700
Cr218      Cr  0.10316895  0.73518543  0.56532660     1.93200
Cr219      Cr  0.07180781  0.77208709  0.59404124     1.39100
O220        O  0.06834476  0.73509241  0.58064281    -1.23400
O221        O  0.71652098  0.98972736  0.58342552    -0.85700
O222        O  0.66903028  0.96031948  0.53920451    -0.82700
C223        C  0.64614421  0.93754969  0.52366247     0.97800
O224        O  0.62532876  0.91019992  0.53580757    -0.82800
O225        O  0.65994096  0.87822243  0.54092009    -0.85400
C226        C  0.68396280  0.87501120  0.54846216     1.02300
O227        O  0.69819968  0.88626974  0.57339663    -0.78200
O228        O  0.73167972  0.95484803  0.56987208    -0.78300
C229        C  0.73670345  0.98389852  0.57015620     1.02300
O230        O  0.66611638  0.96177305  0.62807648    -0.85700
O231        O  0.61865620  0.94107164  0.58303431    -0.82700
C232        C  0.59651173  0.91485945  0.59525821     0.97800
O233        O  0.60046505  0.89039482  0.59704686    -0.82800
O234        O  0.63273754  0.85569848  0.60010512    -0.85400
C235        C  0.64766568  0.86099870  0.62495939     1.02300
O236        O  0.67284780  0.88889149  0.63093906    -0.78200
O237        O  0.70981787  0.95659867  0.63118534    -0.78300
C238        C  0.68947526  0.96334556  0.64336191     1.02200
Cr239      Cr  0.66744557  0.96041231  0.58356277     1.93700
Cr240      Cr  0.63210423  0.88629655  0.56964004     1.93200
Cr241      Cr  0.70075126  0.92185176  0.60008165     1.39100
O242        O  0.66659680  0.92244630  0.58453801    -1.23400
O243        O  0.03703208  0.64689682  0.25312081    -0.85700
O244        O  0.99347692  0.62104030  0.20432958    -0.82700
C245        C  0.97155162  0.59877481  0.18744683     0.97800
O246        O  0.94882908  0.57125162  0.19818546    -0.82800
O247        O  0.97621657  0.53298325  0.20509720    -0.85400
C248        C  0.00233667  0.53268737  0.21068027     1.02300
O249        O  0.01898942  0.54575819  0.23413975    -0.78200
O250        O  0.05187346  0.61329601  0.23625761    -0.78300
C251        C  0.05729341  0.64235623  0.23860647     1.02300
O252        O  0.98284068  0.61574570  0.29301302    -0.85700
O253        O  0.94041634  0.60138699  0.24364440    -0.82700
C254        C  0.91824821  0.57759695  0.25817419     0.96000
O255        O  0.91936740  0.55147368  0.25953253    -0.82800
O256        O  0.94669685  0.51263071  0.26366963    -0.85400
C257        C  0.96307800  0.51553098  0.28709193     1.02300
O258        O  0.99095182  0.54119853  0.29210611    -0.78200
O259        O  0.02525535  0.60845192  0.29779783    -0.78300
C260        C  0.00390998  0.61416364  0.30947946     1.02200
Cr261      Cr  0.98825607  0.61839707  0.24861539     1.93700
Cr262      Cr  0.95028976  0.54472349  0.23281153     1.93200
Cr263      Cr  0.01939098  0.57751252  0.26386464     1.39100
O264        O  0.98589557  0.57952953  0.24836900    -1.23400
O265        O  0.69418875  0.65953395  0.46122710    -0.85700
O266        O  0.71271410  0.70372035  0.41405258    -0.82700
C267        C  0.73798669  0.72544917  0.42781961     0.97800
O268        O  0.76319225  0.72244313  0.42863122    -0.82800
O269        O  0.79942263  0.69103235  0.42986479    -0.85400
C270        C  0.79625456  0.67850282  0.45554828     1.02300
O271        O  0.76890419  0.65363541  0.46341961    -0.78200
O272        O  0.70105665  0.61715425  0.46696908    -0.78300
C273        C  0.69478125  0.63830400  0.47805183     1.02300
O274        O  0.66445111  0.60625415  0.41948206    -0.85700
O275        O  0.69185917  0.65098248  0.37210348    -0.82700
C276        C  0.71426660  0.67357664  0.35598252     0.97800
O277        O  0.74132638  0.69543790  0.36790286    -0.82800
O278        O  0.77342587  0.66099146  0.37271025    -0.85400
C279        C  0.77625282  0.63678050  0.38052728     1.02300
O280        O  0.76688151  0.62411685  0.40629900    -0.78200
O281        O  0.69854983  0.58991291  0.40710754    -0.78300
C282        C  0.66954802  0.58508361  0.40721067     1.02200
Cr283      Cr  0.69348223  0.65513565  0.41676064     1.93700
Cr284      Cr  0.76682385  0.69017366  0.40106014     1.93200
Cr285      Cr  0.73355811  0.62349821  0.43464896     1.39100
O286        O  0.73161845  0.65623167  0.41749482    -1.23400
O287        O  0.61011893  0.63972066  0.78715238    -0.85700
O288        O  0.63554535  0.59967346  0.78040080    -0.82700
C289        C  0.63936352  0.57602259  0.77301173     0.97800
O290        O  0.62282253  0.55709942  0.75129767    -0.82800
O291        O  0.55947897  0.52399836  0.77526084    -0.85400
C292        C  0.53189084  0.51851871  0.78513444     1.02300
O293        O  0.52088823  0.53716651  0.77773275    -0.78200
O294        O  0.56221091  0.59850618  0.80223351    -0.78300
C295        C  0.58873132  0.62523439  0.80762934     1.02300
O296        O  0.60682600  0.64226178  0.72286937    -0.85700
O297        O  0.63866890  0.60834407  0.71585479    -0.82700
C298        C  0.62207548  0.59190386  0.69319078     0.97800
O299        O  0.59411901  0.56620002  0.69688892    -0.82800
O300        O  0.53155894  0.52699150  0.71949693    -0.85400
C301        C  0.51606259  0.54103640  0.71125586     1.02300
O302        O  0.52409508  0.56920944  0.72152853    -0.78200
O303        O  0.56179191  0.63123448  0.74751116    -0.78300
C304        C  0.58465301  0.64883486  0.72878017     1.02200
Cr305      Cr  0.61992494  0.61978030  0.75150196     1.93700
Cr306      Cr  0.57740725  0.54627397  0.73664611     1.93200
Cr307      Cr  0.54486357  0.58403232  0.76138676     1.39100
O308        O  0.58056378  0.58329834  0.74997354    -1.23400
O309        O  0.68214297  0.05280569  0.88939724    -0.85700
O310        O  0.71224499  0.01706216  0.88245040    -0.82700
C311        C  0.73207528  0.03271696  0.86112303     0.97800
O312        O  0.75823026  0.05986424  0.86631993    -0.82800
O313        O  0.79708986  0.12180881  0.88927511    -0.85400
C314        C  0.78347863  0.13744405  0.87990821     1.02300
O315        O  0.75566126  0.13067533  0.89017986    -0.78200
O316        O  0.69374846  0.09628366  0.91676178    -0.78300
C317        C  0.67688558  0.07567210  0.89613027     1.02300
O318        O  0.68293911  0.04741018  0.95451160    -0.85700
O319        O  0.71802932  0.01716967  0.94724826    -0.82700
C320        C  0.74173677  0.01279846  0.94187003     0.97800
O321        O  0.76278252  0.02955037  0.92153309    -0.82800
O322        O  0.79735526  0.09257101  0.94622645    -0.85400
C323        C  0.80464943  0.12102792  0.95511387     1.02300
O324        O  0.78784413  0.13346438  0.94600232    -0.78200
O325        O  0.72643765  0.09310327  0.97067509    -0.78300
C326        C  0.69921979  0.06706606  0.97587451     1.02200
Cr327      Cr  0.70154451  0.03631744  0.91834869     1.93700
Cr328      Cr  0.77624301  0.07570944  0.90670626     1.93200
Cr329      Cr  0.74074440  0.11079120  0.93009068     1.39100
O330        O  0.73956203  0.07425587  0.91838130    -1.23400
O331        O  0.64370179  0.02675033  0.27425051    -0.85700
O332        O  0.61284539  0.96096854  0.28590376    -0.82700
C333        C  0.59735913  0.96116720  0.30917569     0.97800
O334        O  0.57206329  0.96371685  0.30672058    -0.82800
O335        O  0.52913529  0.98176669  0.28392953    -0.85400
C336        C  0.54278096  0.01259390  0.28921503     1.02300
O337        O  0.57003667  0.03260321  0.27697106    -0.78200
O338        O  0.62948956  0.05641873  0.24736040    -0.78300
C339        C  0.64767354  0.05433319  0.26709027     1.02300
O340        O  0.63701684  0.01428313  0.21065723    -0.85700
O341        O  0.59887622  0.94807070  0.22263129    -0.82700
C342        C  0.57692921  0.92082795  0.23336311     0.97800
O343        O  0.55950102  0.92005895  0.25562054    -0.82800
O344        O  0.52261034  0.94413117  0.23058898    -0.85400
C345        C  0.51661714  0.96440437  0.21801601     1.02300
O346        O  0.53413117  0.99516081  0.22413363    -0.78200
O347        O  0.59303198  0.01487424  0.19640455    -0.78300
C348        C  0.61983068  0.01634776  0.19002620     1.02200
Cr349      Cr  0.62046373  0.98756397  0.24847598     1.93700
Cr350      Cr  0.54829365  0.95473993  0.26814883     1.93200
Cr351      Cr  0.58186847  0.02239406  0.23724210     1.39100
O352        O  0.58346889  0.98831389  0.25126525    -1.23400
O353        O  0.97136967  0.69561626  0.94280592    -0.85700
O354        O  0.94223072  0.62981113  0.95093217    -0.82700
C355        C  0.92386341  0.62704011  0.97313311     0.97800
O356        O  0.89750367  0.62720611  0.96879200    -0.82800
O357        O  0.85505937  0.64460902  0.94456718    -0.85400
C358        C  0.86775070  0.67447141  0.95309089     1.02300
O359        O  0.89566170  0.69616670  0.94315007    -0.78200
O360        O  0.95743135  0.72612718  0.91707759    -0.78300
C361        C  0.97510007  0.72330019  0.93688155     1.02300
O362        O  0.96996652  0.68838673  0.87803811    -0.85700
O363        O  0.93426863  0.62165062  0.88607423    -0.82700
C364        C  0.91255581  0.59318750  0.89442349     0.97800
O365        O  0.89262987  0.58937166  0.91550097    -0.82800
O366        O  0.85578567  0.61318319  0.88911238    -0.85400
C367        C  0.84863201  0.63348150  0.87843206     1.02300
O368        O  0.86460086  0.66365425  0.88696042    -0.78200
O369        O  0.92624232  0.68899358  0.86276086    -0.78300
C370        C  0.95409841  0.69243651  0.85722713     1.02200
Cr371      Cr  0.95174064  0.65871017  0.91443386     1.93700
Cr372      Cr  0.87776277  0.62103835  0.92854468     1.93200
Cr373      Cr  0.91116857  0.69137146  0.90337803     1.39100
O374        O  0.91353566  0.65708621  0.91533693    -1.23400
O375        O  0.63563227  0.68496718  0.04286593    -0.85700
O376        O  0.70131130  0.72265719  0.05342173    -0.82700
C377        C  0.72911858  0.74520525  0.06241171     0.97800
O378        O  0.73124057  0.76314370  0.08479827    -0.82800
O379        O  0.70394853  0.79885433  0.06307895    -0.85400
C380        C  0.68268075  0.80504002  0.05316188     1.02300
O381        O  0.65218692  0.78650505  0.05993797    -0.78200
O382        O  0.63229065  0.72800817  0.03064036    -0.78300
C383        C  0.63114893  0.70158041  0.02321486     1.02300
O384        O  0.62511549  0.67641190  0.10671846    -0.85700
O385        O  0.69097399  0.70825540  0.11753520    -0.82700
C386        C  0.69311076  0.72516785  0.14071082     0.97800
O387        O  0.69068694  0.75041669  0.13824436    -0.82800
O388        O  0.66900096  0.79066411  0.11870030    -0.85400
C389        C  0.63858812  0.77528922  0.12625667     1.02300
O390        O  0.61851667  0.74849818  0.11333807    -0.78200
O391        O  0.59364015  0.68973076  0.08184643    -0.78300
C392        C  0.59688677  0.66989572  0.09867615     1.02200
Cr393      Cr  0.66330472  0.70084095  0.08041393     1.93700
Cr394      Cr  0.69633147  0.77318269  0.10003014     1.93200
Cr395      Cr  0.62667802  0.73816350  0.07241153     1.39100
O396        O  0.66207830  0.73745039  0.08423138    -1.23400
C397        C  0.75829862  0.74750428  0.04740552    -0.20200
C398        C  0.78301262  0.74607437  0.06390845     0.36000
C399        C  0.80327743  0.73629943  0.04918964    -0.26200
C400        C  0.79937767  0.72839896  0.01838091     0.02500
C401        C  0.77694290  0.73310535  0.00142403     0.27300
C402        C  0.75656244  0.74248717  0.01613764    -0.25300
N403        N  0.78558890  0.75182913  0.09581542    -0.82700
H404        H  0.82088998  0.73308093  0.06205722     0.13100
C405        C  0.81721744  0.71326757  0.00431708     0.02400
N406        N  0.77405314  0.72700222  0.96952989    -0.81200
H407        H  0.73769209  0.74383488  0.00344697     0.17900
C408        C  0.79880593  0.68200017  0.99051424    -0.26100
C409        C  0.81441105  0.66784260  0.97483522     0.35900
C410        C  0.84950392  0.68514863  0.97306177    -0.20100
C411        C  0.86782229  0.71560343  0.98840767    -0.25400
C412        C  0.85207100  0.72995518  0.00377425     0.27300
H413        H  0.77194303  0.66883418  0.99129873     0.13100
N414        N  0.79383965  0.63664202  0.96007455    -0.82600
H415        H  0.89466699  0.72893064  0.98753194     0.17900
N416        N  0.87131062  0.76188499  0.01794498    -0.81200
H417        H  0.79915979  0.61935355  0.96863648     0.33500
H418        H  0.79900400  0.63952414  0.93695605     0.38000
H419        H  0.89666761  0.77079022  0.01558757     0.33500
H420        H  0.86666123  0.77839617  0.00651737     0.30200
H421        H  0.75609294  0.73120646  0.96044326     0.33500
H422        H  0.79667450  0.74427536  0.95972430     0.30200
H423        H  0.79311705  0.77672139  0.09934113     0.38100
H424        H  0.80423211  0.74857543  0.10473451     0.33600
C425        C  0.57451106  0.89052278  0.22114940    -0.20200
C426        C  0.58046518  0.86988740  0.23957186     0.36000
C427        C  0.58768808  0.84716385  0.22609266    -0.26200
C428        C  0.58854804  0.84460465  0.19474714     0.02500
C429        C  0.58001556  0.86334534  0.17640865     0.27300
C430        C  0.57319792  0.88629279  0.18984468    -0.25300
N431        N  0.58178962  0.87394813  0.27167624    -0.82700
H432        H  0.59420831  0.83254615  0.23995143     0.13100
C433        C  0.60194937  0.82514953  0.18119543     0.02400
N434        N  0.57951185  0.85982988  0.14423078    -0.81200
H435        H  0.56862368  0.90224740  0.17581612     0.17900
C436        C  0.58038277  0.79216604  0.17279720    -0.26100
C437        C  0.59211344  0.77422807  0.15692291     0.35900
C438        C  0.62603563  0.79029349  0.14831405    -0.20100
C439        C  0.64784387  0.82265304  0.15883647    -0.25400
C440        C  0.63612868  0.84020230  0.17523228     0.27300
H441        H  0.55424812  0.78063215  0.17819587     0.13100
N442        N  0.56955926  0.74008339  0.14914654    -0.82600
H443        H  0.67396249  0.83491988  0.15320764     0.17900
N444        N  0.65867825  0.87350768  0.18538077    -0.81200
H445        H  0.54557381  0.73244306  0.15668700     0.33500
H446        H  0.57709616  0.72584473  0.16074795     0.38000
H447        H  0.68309402  0.88072612  0.17970386     0.33500
H448        H  0.65314506  0.88931610  0.17384392     0.30200
H449        H  0.57229923  0.87509993  0.13408607     0.33500
H450        H  0.60374820  0.86820173  0.13700787     0.30200
H451        H  0.55792508  0.86688209  0.27911738     0.38100
H452        H  0.58793305  0.85786632  0.28184676     0.33600
C453        C  0.69436179  0.83569223  0.03543396    -0.20200
C454        C  0.67910887  0.83613079  0.00834626     0.36000
C455        C  0.69180802  0.86615828  0.99249444    -0.26200
C456        C  0.71919550  0.89567628  0.00333711     0.02500
C457        C  0.73480575  0.89498946  0.03001539     0.27300
C458        C  0.72232079  0.86505301  0.04569362    -0.25300
N459        N  0.65161868  0.80602678  0.99652881    -0.82700
H460        H  0.67985750  0.86675372  0.97196873     0.13100
C461        C  0.72962156  0.92761873  0.98801548     0.02400
N462        N  0.76323029  0.92481093  0.04110869    -0.81200
H463        H  0.73424709  0.86469650  0.06633004     0.17900
C464        C  0.72635509  0.95182348  0.00357252    -0.26100
C465        C  0.73298371  0.98117902  0.98944088     0.35900
C466        C  0.74274183  0.98637584  0.95887854    -0.20100
C467        C  0.74818098  0.96321650  0.94382613    -0.25400
C468        C  0.74168805  0.93378800  0.95817194     0.27300
H469        H  0.71759814  0.94729533  0.02663309     0.13100
N470        N  0.72898205  0.00544721  0.00576048    -0.82600
H471        H  0.75575674  0.96721593  0.92043580     0.17900
N472        N  0.74664327  0.90986114  0.94245593    -0.81200
H473        H  0.72131690  0.99777273  0.02785297     0.33500
H474        H  0.75227120  0.02711764  0.00707327     0.38000
H475        H  0.75555556  0.91805870  0.92072900     0.33500
H476        H  0.76520931  0.90827840  0.95374459     0.30200
H477        H  0.77175164  0.92021055  0.06106303     0.33500
H478        H  0.78225686  0.93214632  0.02527145     0.30200
H479        H  0.63142869  0.79882385  0.01094236     0.38100
H480        H  0.64451933  0.81028543  0.97561353     0.33600
C481        C  0.68689528  0.05915258  0.00717513    -0.20200
C482        C  0.69737172  0.08415007  0.02952272     0.36000
C483        C  0.68744592  0.07513896  0.05945498    -0.26200
C484        C  0.66723335  0.04184104  0.06748489     0.02500
C485        C  0.65682279  0.01686145  0.04536577     0.27300
C486        C  0.66649879  0.02577866  0.01534743    -0.25300
N487        N  0.71774159  0.11856707  0.02177245    -0.82700
H488        H  0.69498472  0.09418945  0.07658912     0.13100
C489        C  0.65549203  0.03372865  0.09888214     0.02400
N490        N  0.63684190  0.98257483  0.05362584    -0.81200
H491        H  0.65893406  0.00651328  0.99843529     0.17900
C492        C  0.62151430  0.01899292  0.10469306    -0.26100
C493        C  0.60918192  0.01231706  0.13418018     0.35900
C494        C  0.63155727  0.02134900  0.15847150    -0.20100
C495        C  0.66559461  0.03543082  0.15250356    -0.25400
C496        C  0.67777933  0.04160442  0.12287681     0.27300
H497        H  0.60456641  0.01289093  0.08605387     0.13100
N498        N  0.57403265  0.99616211  0.13943624    -0.82600
H499        H  0.68280102  0.04205158  0.17099664     0.17900
N500        N  0.71260562  0.05587303  0.11699626    -0.81200
H501        H  0.56122040  0.99167275  0.11917273     0.33500
H502        H  0.56635637  0.97296199  0.14873828     0.38000
H503        H  0.72564881  0.06026238  0.13710823     0.33500
H504        H  0.71553382  0.03833957  0.10497465     0.30200
H505        H  0.63130118  0.96727494  0.03471618     0.33500
H506        H  0.65105626  0.97717993  0.06782771     0.30200
H507        H  0.70371423  0.12451134  0.00789230     0.38100
H508        H  0.72361055  0.13361545  0.04090615     0.33600
C509        C  0.66563457  0.57322291  0.78840591    -0.20200
C510        C  0.67326021  0.58317599  0.81872481     0.36000
C511        C  0.70317078  0.58904434  0.83087608    -0.26200
C512        C  0.72606383  0.58558592  0.81327778     0.02500
C513        C  0.71724330  0.57258102  0.78382398     0.27300
C514        C  0.68679694  0.56618159  0.77171268    -0.25300
N515        N  0.65111768  0.58842127  0.83700284    -0.82700
H516        H  0.70935456  0.59804280  0.85382355     0.13100
C517        C  0.75990793  0.59866518  0.82560475     0.02400
N518        N  0.73983159  0.56754114  0.76589065    -0.81200
H519        H  0.68087969  0.55824148  0.74849420     0.17900
C520        C  0.77184241  0.57737113  0.83105378    -0.26100
C521        C  0.80168773  0.58857736  0.84675763     0.35900
C522        C  0.81980801  0.62163352  0.85767473    -0.20100
C523        C  0.80884804  0.64339116  0.85014886    -0.25400
C524        C  0.77932595  0.63233029  0.83407696     0.27300
H525        H  0.75736983  0.55164601  0.82405013     0.13100
N526        N  0.81310817  0.56608303  0.85187734    -0.82600
H527        H  0.82277525  0.66897856  0.85759602     0.17900
N528        N  0.76846163  0.65498292  0.82685713    -0.81200
H529        H  0.81627758  0.55768058  0.83099925     0.33500
H530        H  0.79465178  0.54569599  0.86364428     0.38000
H531        H  0.78536190  0.67881220  0.83477295     0.33500
H532        H  0.76829194  0.65652089  0.80342765     0.30200
H533        H  0.72955468  0.55779393  0.74481777     0.33500
H534        H  0.76094685  0.59075490  0.76206906     0.30200
H535        H  0.66394216  0.61297704  0.84464654     0.38100
H536        H  0.64454110  0.57299431  0.85573878     0.33600
C537        C  0.59506108  0.63952386  0.83816237    -0.20200
C538        C  0.56902291  0.63612433  0.85663224     0.36000
C539        C  0.57561528  0.64775681  0.88634108    -0.26200
C540        C  0.60779530  0.66258090  0.89795119     0.02500
C541        C  0.63409249  0.66684015  0.87936886     0.27300
C542        C  0.62748512  0.65541589  0.84951057    -0.25300
N543        N  0.53594132  0.62117808  0.84520803    -0.82700
H544        H  0.55543308  0.64467296  0.90059233     0.13100
C545        C  0.61340336  0.67254548  0.92992462     0.02400
N546        N  0.66724098  0.68241075  0.89105477    -0.81200
H547        H  0.64753120  0.65807192  0.83531778     0.17900
C548        C  0.62280930  0.65575738  0.94954708    -0.26100
C549        C  0.62790348  0.66395221  0.98025085     0.35900
C550        C  0.62402892  0.69007499  0.99142819    -0.20100
C551        C  0.61434996  0.70666203  0.97148611    -0.25400
C552        C  0.60898994  0.69813404  0.94088661     0.27300
H553        H  0.62581793  0.63586914  0.94083328     0.13100
N554        N  0.63736327  0.64605513  0.99979759    -0.82600
H555        H  0.61117220  0.72660935  0.97968376     0.17900
N556        N  0.59943172  0.71553717  0.92080363    -0.81200
H557        H  0.64130374  0.62931982  0.98751309     0.33500
H558        H  0.61722610  0.63169904  0.01398562     0.38000
H559        H  0.59709957  0.73364169  0.93244375     0.33500
H560        H  0.61865673  0.72804263  0.90524666     0.30200
H561        H  0.68366638  0.68334618  0.87457341     0.33500
H562        H  0.67467095  0.70694695  0.89641548     0.30200
H563        H  0.52046827  0.60081534  0.85867513     0.38100
H564        H  0.52828050  0.63839957  0.84727796     0.33600
C565        C  0.68746670  0.63682544  0.51078097    -0.20200
C566        C  0.68479632  0.66178961  0.52636207     0.36000
C567        C  0.67726942  0.65803301  0.55734446    -0.26200
C568        C  0.67299902  0.63031418  0.57290579     0.02500
C569        C  0.67648012  0.60599516  0.55770262     0.27300
C570        C  0.68372482  0.60950751  0.52694671    -0.25300
N571        N  0.68941025  0.69057273  0.51086636    -0.82700
H572        H  0.67419876  0.67643871  0.56932888     0.13100
C573        C  0.66090169  0.62439653  0.60420630     0.02400
N574        N  0.67126777  0.57708323  0.57341145    -0.81200
H575        H  0.68590224  0.59029859  0.51550134     0.17900
C576        C  0.62664350  0.60574435  0.60891171    -0.26100
C577        C  0.61342368  0.59525612  0.63777690     0.35900
C578        C  0.63514100  0.60308219  0.66244710    -0.20100
C579        C  0.66955655  0.62296341  0.65777964    -0.25400
C580        C  0.68269604  0.63364525  0.62877347     0.27300
H581        H  0.61016606  0.59889611  0.58979070     0.13100
N582        N  0.57805348  0.57699769  0.64207603    -0.82600
H583        H  0.68624828  0.62964058  0.67669705     0.17900
N584        N  0.71791954  0.65372370  0.62414707    -0.81200
H585        H  0.56576907  0.57294738  0.62156416     0.33500
H586        H  0.57196061  0.59176132  0.65506378     0.38000
H587        H  0.73042860  0.65869721  0.64463533     0.33500
H588        H  0.72535570  0.64002191  0.61120713     0.30200
H589        H  0.67377884  0.56098707  0.55878326     0.33500
H590        H  0.69001859  0.58479629  0.58942676     0.30200
H591        H  0.71424916  0.70437116  0.50414280     0.38100
H592        H  0.68554010  0.70582812  0.52544899     0.33600
C593        C  0.70974220  0.67587685  0.32313968    -0.20200
C594        C  0.67831703  0.66023641  0.30903026     0.36000
C595        C  0.67621829  0.66610420  0.27828733    -0.26200
C596        C  0.70478797  0.68675379  0.26134532     0.02500
C597        C  0.73614383  0.70098009  0.27502336     0.27300
C598        C  0.73826945  0.69552192  0.30562873    -0.25300
N599        N  0.64862784  0.63954582  0.32599180    -0.82700
H600        H  0.65215118  0.65526179  0.26766123     0.13100
C601        C  0.70179774  0.69568311  0.23003138     0.02400
N602        N  0.76573278  0.72138946  0.25778116    -0.81200
H603        H  0.76256002  0.70700929  0.31590698     0.17900
C604        C  0.71461604  0.72917804  0.22338796    -0.26100
C605        C  0.71329732  0.73943781  0.19420565     0.35900
C606        C  0.69812618  0.71552472  0.17101980    -0.20100
C607        C  0.68542241  0.68190515  0.17761120    -0.25400
C608        C  0.68711291  0.67173661  0.20694466     0.27300
H609        H  0.72583332  0.74749578  0.24119821     0.13100
N610        N  0.72748802  0.77413088  0.18806905    -0.82600
H611        H  0.67351146  0.66346621  0.16000389     0.17900
N612        N  0.67400434  0.63730653  0.21339259    -0.81200
H613        H  0.73724262  0.78831060  0.20763163     0.33500
H614        H  0.74745561  0.78122480  0.17336477     0.38000
H615        H  0.66384223  0.62287009  0.19402908     0.33500
H616        H  0.69384836  0.63459831  0.21973208     0.30200
H617        H  0.78683609  0.73032265  0.27120850     0.33500
H618        H  0.76738215  0.70636665  0.24124263     0.30200
H619        H  0.64876114  0.61810615  0.33170346     0.38100
H620        H  0.62763502  0.63171531  0.31264295     0.33600
C621        C  0.89267302  0.58197240  0.27380305    -0.20200
C622        C  0.90036798  0.61407372  0.28298119     0.36000
C623        C  0.87674831  0.61840805  0.29808429    -0.26200
C624        C  0.84534106  0.59151133  0.30457247     0.02500
C625        C  0.83685688  0.55937375  0.29502321     0.27300
C626        C  0.86081524  0.55484104  0.27985804    -0.25300
N627        N  0.93266335  0.64248131  0.27796908    -0.82700
H628        H  0.88334126  0.64305228  0.30556538     0.13100
C629        C  0.82334547  0.59815367  0.32350447     0.02400
N630        N  0.80394928  0.53177576  0.30014587    -0.81200
H631        H  0.85458281  0.53026111  0.27260464     0.17900
C632        C  0.80624755  0.61211882  0.31047318    -0.26100
C633        C  0.79037023  0.62474376  0.32845388     0.35900
C634        C  0.79167804  0.62326221  0.36011768    -0.20100
C635        C  0.80833123  0.60864795  0.37295040    -0.25400
C636        C  0.82464061  0.59665494  0.35502665     0.27300
H637        H  0.80625719  0.61413270  0.28622310     0.13100
N638        N  0.77330787  0.63930064  0.31469296    -0.82600
H639        H  0.80978356  0.60775991  0.39719500     0.17900
N640        N  0.84439128  0.58501178  0.36869859    -0.81200
H641        H  0.77515333  0.63892399  0.29127150     0.33500
H642        H  0.74812414  0.62446628  0.31997727     0.38000
H643        H  0.84398672  0.58690221  0.39211748     0.33500
H644        H  0.83354354  0.55981939  0.36368346     0.30200
H645        H  0.80159290  0.51003066  0.29122073     0.33500
H646        H  0.80034160  0.52824093  0.32331374     0.30200
H647        H  0.92995734  0.65954057  0.26527787     0.38100
H648        H  0.94271755  0.65339538  0.29879218     0.33600
C649        C  0.97107063  0.60496372  0.15495834    -0.20200
C650        C  0.96092783  0.57903709  0.13380470     0.36000
C651        C  0.95649820  0.58423536  0.10365399    -0.26200
C652        C  0.96269372  0.61520055  0.09395335     0.02500
C653        C  0.97535286  0.64194413  0.11462130     0.27300
C654        C  0.97934320  0.63652917  0.14499134    -0.25300
N655        N  0.95532518  0.54740225  0.14285048    -0.82700
H656        H  0.94723923  0.56366520  0.08793128     0.13100
C657        C  0.95366788  0.61860675  0.06273843     0.02400
N658        N  0.98365215  0.67432817  0.10471510    -0.81200
H659        H  0.98786370  0.65670507  0.16107289     0.17900
C660        C  0.93115122  0.62933951  0.05851147    -0.26100
C661        C  0.92099033  0.63200759  0.02965143     0.35900
C662        C  0.93326972  0.62351407  0.00414881    -0.20100
C663        C  0.95579998  0.61267890  0.00840113    -0.25400
C664        C  0.96608968  0.61009937  0.03740855     0.27300
H665        H  0.92117691  0.63554770  0.07783836     0.13100
N666        N  0.89872740  0.64407279  0.02644659    -0.82600
H667        H  0.96543559  0.60617641  0.98903004     0.17900
N668        N  0.98924954  0.59910794  0.04123755    -0.81200
H669        H  0.90969786  0.66763701  0.03622621     0.33500
H670        H  0.87700784  0.62837813  0.03842812     0.38000
H671        H  0.99585324  0.59364593  0.02042279     0.33500
H672        H  0.01088138  0.61881279  0.05049159     0.30200
H673        H  0.99255052  0.69120829  0.12263632     0.33500
H674        H  0.00313887  0.68242583  0.08926534     0.30200
H675        H  0.93094423  0.52939931  0.13738253     0.38100
H676        H  0.97126257  0.54243831  0.13041554     0.33600
C677        C  0.73613986  0.75310190  0.44278479    -0.20200
C678        C  0.76014076  0.77589688  0.46320812     0.36000
C679        C  0.75440525  0.79900152  0.47850121    -0.26200
C680        C  0.72463668  0.79898328  0.47483662     0.02500
C681        C  0.70101206  0.77653973  0.45409378     0.27300
C682        C  0.70734764  0.75461725  0.43801002    -0.25300
N683        N  0.78979063  0.77517734  0.46894732    -0.82700
H684        H  0.77286635  0.81651935  0.49403869     0.13100
C685        C  0.71729077  0.82101631  0.49374190     0.02400
N686        N  0.66998056  0.77516905  0.45014246    -0.81200
H687        H  0.68868249  0.73754933  0.42237308     0.17900
C688        C  0.70550259  0.83984303  0.48002849    -0.26100
C689        C  0.69373450  0.85706499  0.49715003     0.35900
C690        C  0.69530585  0.85690656  0.52885609    -0.20100
C691        C  0.70881420  0.83961790  0.54250810    -0.25400
C692        C  0.71929794  0.82131531  0.52544153     0.27300
H693        H  0.70462333  0.84035198  0.45572043     0.13100
N694        N  0.68090343  0.87517341  0.48234609    -0.82600
H695        H  0.71021490  0.83947802  0.56681163     0.17900
N696        N  0.73116595  0.80239062  0.54030257    -0.81200
H697        H  0.68377172  0.87470750  0.45905009     0.33500
H698        H  0.65534309  0.86267013  0.48627417     0.38000
H699        H  0.73145384  0.80559082  0.56361637     0.33500
H700        H  0.71431203  0.77732354  0.53597686     0.30200
H701        H  0.65546919  0.75758086  0.43381818     0.33500
H702        H  0.65683434  0.76716150  0.47038263     0.30200
H703        H  0.78277925  0.75302498  0.48007711     0.38100
H704        H  0.80528206  0.79427480  0.48372169     0.33600
C705        C  0.58752500  0.67870662  0.71461906    -0.20200
C706        C  0.57676427  0.69844786  0.72910315     0.36000
C707        C  0.58435871  0.72886670  0.71620274    -0.26200
C708        C  0.60297301  0.74008387  0.68958536     0.02500
C709        C  0.61269521  0.71994005  0.67460022     0.27300
C710        C  0.60488215  0.68954642  0.68721349    -0.25300
N711        N  0.55948486  0.68836137  0.75736932    -0.82700
H712        H  0.57685504  0.74448408  0.72748371     0.13100
C713        C  0.61325902  0.77334345  0.67764420     0.02400
N714        N  0.63097984  0.73078719  0.64683214    -0.81200
H715        H  0.61303626  0.67449635  0.67582678     0.17900
C716        C  0.64705469  0.79780324  0.67767585    -0.26100
C717        C  0.65881554  0.82767174  0.66205557     0.35900
C718        C  0.63613816  0.83312090  0.64620489    -0.20100
C719        C  0.60204550  0.80952221  0.64794002    -0.25400
C720        C  0.59036851  0.77962137  0.66350569     0.27300
H721        H  0.66447754  0.79280867  0.68874135     0.13100
N722        N  0.69378862  0.85153566  0.66090243    -0.82600
H723        H  0.58459073  0.81389578  0.63610882     0.17900
N724        N  0.55558059  0.75510355  0.66403307    -0.81200
H725        H  0.70692102  0.84388106  0.67409737     0.33500
H726        H  0.70171172  0.85228423  0.63874199     0.38000
H727        H  0.54203264  0.76369366  0.65276890     0.33500
H728        H  0.55223575  0.73439193  0.65204383     0.30200
H729        H  0.63660543  0.71328670  0.63879439     0.33500
H730        H  0.61555377  0.73218727  0.63084876     0.30200
H731        H  0.57598929  0.68886843  0.77330291     0.38100
H732        H  0.55296910  0.70543404  0.76471838     0.33600
C733        C  0.64286733  0.94249544  0.49116207    -0.20200
C734        C  0.66503627  0.97231898  0.47597012     0.36000
C735        C  0.66053750  0.97505065  0.44515147    -0.26200
C736        C  0.63432912  0.94897838  0.42936640     0.02500
C737        C  0.61253074  0.91921518  0.44413923     0.27300
C738        C  0.61711780  0.91617718  0.47477838    -0.25300
N739        N  0.69179609  0.99982385  0.49168394    -0.82700
H740        H  0.67696560  0.99795172  0.43349360     0.13100
C741        C  0.62767671  0.95418211  0.39817386     0.02400
N742        N  0.58544266  0.89244209  0.42802502    -0.81200
H743        H  0.60009699  0.89314555  0.48593601     0.17900
C744        C  0.63230947  0.93705483  0.37455928    -0.26100
C745        C  0.62332994  0.93935244  0.34499089     0.35900
C746        C  0.60889554  0.95876496  0.33931537    -0.20100
C747        C  0.60487984  0.97626353  0.36304552    -0.25400
C748        C  0.61411152  0.97415133  0.39242547     0.27300
H749        H  0.64253448  0.92154274  0.37935442     0.13100
N750        N  0.62744092  0.92091172  0.32117228    -0.82600
H751        H  0.59424333  0.99149965  0.35866393     0.17900
N752        N  0.60908521  0.99157748  0.41663772    -0.81200
H753        H  0.63579389  0.90585045  0.32969615     0.33500
H754        H  0.64628220  0.93791022  0.30704071     0.38000
H755        H  0.59906872  0.00537896  0.40859020     0.33500
H756        H  0.59140588  0.97388077  0.43119582     0.30200
H757        H  0.57173420  0.87213046  0.44211746     0.33500
H758        H  0.56943381  0.90048052  0.42144525     0.30200
H759        H  0.68132578  0.00948447  0.50631709     0.38100
H760        H  0.70677400  0.01888060  0.47678416     0.33600
C761        C  0.69382273  0.97296696  0.67559683    -0.20200
C762        C  0.67986623  0.99046358  0.68893379     0.36000
C763        C  0.68462943  0.99811854  0.71983167    -0.26200
C764        C  0.70336086  0.98908064  0.73734437     0.02500
C765        C  0.71752132  0.97198451  0.72414050     0.27300
C766        C  0.71243372  0.96390155  0.69349691    -0.25300
N767        N  0.66163829  0.00103541  0.67110641    -0.82700
H768        H  0.67435205  0.01181520  0.73022539     0.13100
C769        C  0.71037612  0.00000019  0.76899594     0.02400
N770        N  0.73721315  0.96314097  0.74192063    -0.81200
H771        H  0.72314383  0.95039197  0.68356868     0.17900
C772        C  0.69230964  0.97773370  0.79204819    -0.26100
C773        C  0.69936351  0.98727424  0.82244441     0.35900
C774        C  0.72474383  0.01999287  0.82970924    -0.20100
C775        C  0.74296626  0.04195787  0.80626936    -0.25400
C776        C  0.73619669  0.03218770  0.77606023     0.27300
H777        H  0.67288368  0.95278068  0.78624287     0.13100
N778        N  0.68105232  0.96380378  0.84576100    -0.82600
H779        H  0.76246964  0.06707187  0.81143762     0.17900
N780        N  0.75536331  0.05480691  0.75243067    -0.81200
H781        H  0.66296758  0.94114701  0.83652581     0.33500
H782        H  0.69763497  0.95920769  0.85717742     0.38000
H783        H  0.77329763  0.07769975  0.76138202     0.33500
H784        H  0.76823662  0.04516966  0.74124636     0.30200
H785        H  0.74564161  0.95035322  0.72884172     0.33500
H786        H  0.75831340  0.98508916  0.74893797     0.30200
H787        H  0.67827487  0.01857711  0.65582301     0.38100
H788        H  0.65271359  0.01315535  0.68451165     0.33600
C789        C  0.82588281  0.69250602  0.47548778    -0.20200
C790        C  0.85391066  0.72443157  0.47020716     0.36000
C791        C  0.88338534  0.73481968  0.48610880    -0.26200
C792        C  0.88549359  0.71451317  0.50763931     0.02500
C793        C  0.85712547  0.68359966  0.51441638     0.27300
C794        C  0.82751271  0.67296096  0.49838658    -0.25300
N795        N  0.85257615  0.74614811  0.44845907    -0.82700
H796        H  0.90512876  0.75874893  0.48136011     0.13100
C797        C  0.91820040  0.72502450  0.52133742     0.02400
N798        N  0.85886990  0.66268975  0.53679176    -0.81200
H799        H  0.80616771  0.64867951  0.50284037     0.17900
C800        C  0.92283921  0.73124133  0.55238061    -0.26100
C801        C  0.95276894  0.73864039  0.56623919     0.35900
C802        C  0.97831660  0.73965455  0.54862326    -0.20100
C803        C  0.97414490  0.73485278  0.51740363    -0.25400
C804        C  0.94439168  0.72760824  0.50354792     0.27300
H805        H  0.90270269  0.72940890  0.56588994     0.13100
N806        N  0.95641594  0.74277980  0.59829574    -0.82600
H807        H  0.99367231  0.73521010  0.50399081     0.17900
N808        N  0.94017585  0.72158563  0.47166859    -0.81200
H809        H  0.93484654  0.73998729  0.60808558     0.33500
H810        H  0.97525480  0.76719459  0.60258469     0.38000
H811        H  0.96182758  0.72458621  0.46186436     0.33500
H812        H  0.92174302  0.69677229  0.46840187     0.30200
H813        H  0.83588796  0.64085313  0.53920228     0.33500
H814        H  0.87546812  0.65572364  0.52902374     0.30200
H815        H  0.83543070  0.75235175  0.45628156     0.38100
H816        H  0.87538045  0.76834072  0.44695946     0.33600
C817        C  0.04294476  0.68029280  0.49196365    -0.20200
C818        C  0.05014333  0.70116861  0.46684104     0.36000
C819        C  0.03895068  0.68694450  0.43829422    -0.26200
C820        C  0.02042560  0.65247240  0.43444895     0.02500
C821        C  0.01226993  0.63163273  0.45954203     0.27300
C822        C  0.02355983  0.64576323  0.48811288    -0.25300
N823        N  0.06844513  0.73662774  0.47039191    -0.82700
H824        H  0.04508989  0.70276625  0.41881745     0.13100
C825        C  0.01206025  0.63880371  0.40361723     0.02400
N826        N  0.99279462  0.59626101  0.45579092    -0.81200
H827        H  0.01762438  0.62972442  0.50739038     0.17900
C828        C  0.02719781  0.62207224  0.39208882    -0.26100
C829        C  0.02364494  0.61256451  0.36182363     0.35900
C830        C  0.00509315  0.62054430  0.34234296    -0.20100
C831        C  0.98809009  0.63535602  0.35452174    -0.25400
C832        C  0.99131241  0.64444108  0.38508423     0.27300
H833        H  0.04267309  0.61717289  0.40650181     0.13100
N834        N  0.03900252  0.59482389  0.35110013    -0.82600
H835        H  0.97295288  0.64064449  0.34008615     0.17900
N836        N  0.97405003  0.65976557  0.39735763    -0.81200
H837        H  0.02964265  0.57305416  0.36357638     0.33500
H838        H  0.06447563  0.60935687  0.35514977     0.38000
H839        H  0.95968216  0.66205569  0.38081330     0.33500
H840        H  0.95752094  0.64381726  0.41364732     0.30200
H841        H  0.98906397  0.58444079  0.47648090     0.33500
H842        H  0.96940313  0.59034524  0.44810163     0.30200
H843        H  0.05399278  0.74305127  0.48346114     0.38100
H844        H  0.07186927  0.74824423  0.44963292     0.33600
C845        C  0.01786636  0.72358126  0.67220230    -0.20200
C846        C  0.99429023  0.69193947  0.68347413     0.36000
C847        C  0.98472448  0.68874706  0.71390607    -0.26200
C848        C  0.99866224  0.71626625  0.73332149     0.02500
C849        C  0.02192959  0.74774646  0.72218953     0.27300
C850        C  0.03130913  0.75109194  0.69181261    -0.25300
N851        N  0.98074781  0.66311136  0.66435698    -0.82700
H852        H  0.96673703  0.66460707  0.72273424     0.13100
C853        C  0.98806933  0.71185656  0.76519739     0.02400
N854        N  0.03583285  0.77618333  0.74180901    -0.81200
H855        H  0.04924306  0.77545469  0.68340746     0.17900
C856        C  0.00998010  0.71451915  0.78779720    -0.26100
C857        C  0.00019975  0.70954614  0.81824757     0.35900
C858        C  0.96746652  0.70096241  0.82601756    -0.20100
C859        C  0.94614837  0.69952642  0.80316022    -0.25400
C860        C  0.95622656  0.70519028  0.77298455     0.27300
H861        H  0.03474387  0.72039993  0.78157760     0.13100
N862        N  0.02338435  0.71326210  0.84107079    -0.82600
H863        H  0.92121440  0.69357093  0.80870331     0.17900
N864        N  0.93424568  0.70415192  0.75011391    -0.81200
H865        H  0.04606207  0.71900554  0.83142895     0.33500
H866        H  0.02813176  0.73367255  0.85438430     0.38000
H867        H  0.91160010  0.69883612  0.75952526     0.33500
H868        H  0.94497661  0.72789940  0.74097304     0.30200
H869        H  0.05279445  0.79754726  0.73017018     0.33500
H870        H  0.01654033  0.77968868  0.74870371     0.30200
H871        H  0.00011888  0.65929889  0.65851803     0.38100
H872        H  0.96337712  0.64201067  0.67608062     0.33600
C873        C  0.48659926  0.52324513  0.69153533    -0.20200
C874        C  0.48197138  0.49713910  0.67225232     0.36000
C875        C  0.45192795  0.47870555  0.65662417    -0.26200
C876        C  0.42648747  0.48567181  0.66002579     0.02500
C877        C  0.43116960  0.51202550  0.67861413     0.27300
C878        C  0.46136218  0.53085924  0.69392028    -0.25300
N879        N  0.50745564  0.48905862  0.66897002    -0.82700
H880        H  0.44786916  0.45813623  0.64238703     0.13100
C881        C  0.39396441  0.46284110  0.64636544     0.02400
N882        N  0.40473003  0.51858828  0.68280732    -0.81200
H883        H  0.46456980  0.55061694  0.70884116     0.17900
C884        C  0.37068441  0.43578856  0.66326515    -0.26100
C885        C  0.34138023  0.41084040  0.65009170     0.35900
C886        C  0.33518146  0.41293558  0.61942710    -0.20100
C887        C  0.35745695  0.44125693  0.60307304    -0.25400
C888        C  0.38705583  0.46626261  0.61629636     0.27300
H889        H  0.37588017  0.43342726  0.68651856     0.13100
N890        N  0.31820022  0.38308033  0.66778674    -0.82600
H891        H  0.35273856  0.44294933  0.57954167     0.17900
N892        N  0.41074657  0.49432555  0.59906529    -0.81200
H893        H  0.31089661  0.39202070  0.68604783     0.33500
H894        H  0.33038310  0.37148602  0.67618236     0.38000
H895        H  0.40211570  0.49288342  0.57717954     0.33500
H896        H  0.41267010  0.51551282  0.60887970     0.30200
H897        H  0.41189711  0.53842059  0.69772074     0.33500
H898        H  0.40038587  0.52603094  0.66212958     0.30200
H899        H  0.52788916  0.50925384  0.65881076     0.38100
H900        H  0.49980298  0.46885769  0.65440109     0.33600
C901        C  0.43088951  0.07858494  0.38946664    -0.20200
C902        C  0.44714883  0.06451138  0.40433590     0.36000
C903        C  0.46968867  0.05885380  0.38836385    -0.26200
C904        C  0.47573855  0.06637441  0.35775406     0.02500
C905        C  0.46079787  0.08191731  0.34321134     0.27300
C906        C  0.43876588  0.08829679  0.35936377    -0.25300
N907        N  0.43963781  0.05481006  0.43529283    -0.82700
H908        H  0.48116608  0.04680828  0.39934705     0.13100
C909        C  0.49377297  0.05345193  0.34041778     0.02400
N910        N  0.46683149  0.08958771  0.31176622    -0.81200
H911        H  0.42594724  0.09868127  0.34788259     0.17900
C912        C  0.47517924  0.02418176  0.32380642    -0.26100
C913        C  0.49059340  0.01005923  0.30750078     0.35900
C914        C  0.52555172  0.02557770  0.30787147    -0.20100
C915        C  0.54419517  0.05495705  0.32470087    -0.25400
C916        C  0.52856714  0.06892248  0.34118349     0.27300
H917        H  0.44839772  0.01235276  0.32353030     0.13100
N918        N  0.47084256  0.98047682  0.28998200    -0.82600
H919        H  0.57098874  0.06698976  0.32500392     0.17900
N920        N  0.54774960  0.09859868  0.35869872    -0.81200
H921        H  0.44559208  0.97195020  0.29261613     0.33500
H922        H  0.47643529  0.98673603  0.26732313     0.38000
H923        H  0.57300989  0.10677337  0.35707355     0.33500
H924        H  0.54462666  0.11710372  0.34930774     0.30200
H925        H  0.45350790  0.10036930  0.30428450     0.33500
H926        H  0.49195530  0.10743402  0.30923899     0.30200
H927        H  0.44724813  0.07629965  0.44805800     0.38100
H928        H  0.45337018  0.04448837  0.44280182     0.33600
C929        C  0.13458041  0.83139749  0.52632920    -0.20200
C930        C  0.16966582  0.84999643  0.52770997     0.36000
C931        C  0.18728713  0.87947685  0.51111240    -0.26200
C932        C  0.17066498  0.89099930  0.49356935     0.02500
C933        C  0.13578930  0.87286391  0.49250790     0.27300
C934        C  0.11808180  0.84327341  0.50890792    -0.25300
N935        N  0.18726073  0.83941778  0.54646810    -0.82700
H936        H  0.21414428  0.89367495  0.51190649     0.13100
C937        C  0.19028316  0.92173462  0.47583303     0.02400
N938        N  0.11856068  0.88467368  0.47480940    -0.81200
H939        H  0.09123277  0.82935724  0.50804339     0.17900
C940        C  0.19346149  0.91919737  0.44472845    -0.26100
C941        C  0.21481683  0.94728807  0.42761017     0.35900
C942        C  0.23308129  0.97850343  0.44189204    -0.20100
C943        C  0.22820494  0.98139210  0.47267319    -0.25400
C944        C  0.20708028  0.95316064  0.48987256     0.27300
H945        H  0.18018315  0.89502509  0.43401923     0.13100
N946        N  0.21883675  0.94419825  0.39590148    -0.82600
H947        H  0.24246197  0.00533710  0.48364256     0.17900
N948        N  0.20342057  0.95601838  0.52167044    -0.81200
H949        H  0.20384549  0.91958546  0.38886413     0.33500
H950        H  0.21038105  0.95789129  0.38469929     0.38000
H951        H  0.21766233  0.98076047  0.52860096     0.33500
H952        H  0.17864895  0.94866309  0.52575667     0.30200
H953        H  0.09293120  0.86844849  0.47631940     0.33500
H954        H  0.12344820  0.90721399  0.48415959     0.30200
H955        H  0.18097350  0.84084080  0.56880401     0.38100
H956        H  0.21286435  0.85566150  0.54463186     0.33600
C957        C  0.29757455  0.12736088  0.47260241    -0.20200
C958        C  0.26310745  0.11535184  0.47295872     0.36000
C959        C  0.25106505  0.13275697  0.48916081    -0.26200
C960        C  0.27266815  0.16150176  0.50530700     0.02500
C961        C  0.30681632  0.17263729  0.50617880     0.27300
C962        C  0.31892768  0.15519574  0.49004488    -0.25300
N963        N  0.24053599  0.08567629  0.45667810    -0.82700
H964        H  0.22483424  0.12426824  0.48881344     0.13100
C965        C  0.25971720  0.18117766  0.51944432     0.02400
N966        N  0.32914062  0.20225305  0.52261304    -0.81200
H967        H  0.34530677  0.16436852  0.48979778     0.17900
C968        C  0.25721866  0.18184248  0.55084121    -0.26100
C969        C  0.24879174  0.20338706  0.56503104     0.35900
C970        C  0.24248570  0.22425480  0.54733318    -0.20100
C971        C  0.24380588  0.22262534  0.51588857    -0.25400
C972        C  0.25242285  0.20129414  0.50172386     0.27300
H973        H  0.26318881  0.16650869  0.56426417     0.13100
N974        N  0.24918181  0.20607809  0.59725595    -0.82600
H975        H  0.23988303  0.23941063  0.50244292     0.17900
N976        N  0.25523432  0.20100227  0.46951692    -0.81200
H977        H  0.25546170  0.18987248  0.60694203     0.33500
H978        H  0.22504173  0.19836685  0.60432118     0.38000
H979        H  0.24904468  0.21726079  0.45980998     0.33500
H980        H  0.28015318  0.21006108  0.46424443     0.30200
H981        H  0.35341969  0.20704548  0.52105813     0.33500
H982        H  0.32907163  0.22208936  0.51227766     0.30200
H983        H  0.24135373  0.06601798  0.46654265     0.38100
H984        H  0.21616480  0.08042801  0.45905116     0.33600
C985        C  0.90635339  0.31764101  0.78601420    -0.20200
C986        C  0.87726217  0.29549691  0.77005067     0.36000
C987        C  0.85393743  0.26526619  0.78348608    -0.26200
C988        C  0.85922916  0.25744803  0.81247462     0.02500
C989        C  0.88673693  0.28083304  0.82926743     0.27300
C990        C  0.91007845  0.31063658  0.81583599    -0.25300
N991        N  0.87250527  0.30274604  0.73982108    -0.82700
H992        H  0.83228518  0.24727424  0.77101715     0.13100
C993        C  0.83703469  0.22425801  0.82506506     0.02400
N994        N  0.89132504  0.27361292  0.85959075    -0.81200
H995        H  0.93204900  0.32799079  0.82833427     0.17900
C996        C  0.84930948  0.20296295  0.82868668    -0.26100
C997        C  0.83157775  0.17365479  0.84518688     0.35900
C998        C  0.80104444  0.16555614  0.85866789    -0.20100
C999        C  0.78787889  0.18603812  0.85319932    -0.25400
C1000       C  0.80566037  0.21537279  0.83656480     0.27300
H1001       H  0.87339320  0.20975065  0.81948998     0.13100
N1002       N  0.84501024  0.15258692  0.84848119    -0.82600
H1003       H  0.76422819  0.17994070  0.86291316     0.17900
N1004       N  0.79252868  0.23667630  0.83210456    -0.81200
H1005       H  0.84822061  0.14539786  0.82701668     0.33500
H1006       H  0.86835183  0.16641073  0.85848532     0.38000
H1007       H  0.76900666  0.22645928  0.84186487     0.33500
H1008       H  0.80789845  0.25896146  0.84346315     0.30200
H1009       H  0.91309858  0.29327052  0.86871615     0.33500
H1010       H  0.87172473  0.27160897  0.87252309     0.30200
H1011       H  0.86934689  0.32316524  0.74084333     0.38100
H1012       H  0.85054234  0.28316306  0.73091124     0.33600
C1013       C  0.09563323  0.41174868  0.71720936    -0.20200
C1014       C  0.11737118  0.40595104  0.73420054     0.36000
C1015       C  0.13785192  0.39647369  0.71929298    -0.26200
C1016       C  0.13657502  0.39250928  0.68789406     0.02500
C1017       C  0.11624135  0.40021522  0.67093706     0.27300
C1018       C  0.09589622  0.40958807  0.68576608    -0.25300
N1019       N  0.11651903  0.40699319  0.76648140    -0.82700
H1020       H  0.15349820  0.39047941  0.73222039     0.13100
C1021       C  0.15429275  0.37780190  0.67270789     0.02400
N1022       N  0.11541598  0.39715220  0.63871392    -0.81200
H1023       H  0.07879529  0.41354990  0.67282427     0.17900
C1024       C  0.13548449  0.34720599  0.65796363    -0.26100
C1025       C  0.15051507  0.33429767  0.63941396     0.35900
C1026       C  0.18544845  0.35204597  0.63614341    -0.20100
C1027       C  0.20435566  0.38191029  0.65229992    -0.25400
C1028       C  0.18909581  0.39507258  0.67037264     0.27300
H1029       H  0.10869469  0.33403959  0.65992755     0.13100
N1030       N  0.13021343  0.30399106  0.62300216    -0.82600
H1031       H  0.23113400  0.39549161  0.65024155     0.17900
N1032       N  0.20867949  0.42630607  0.68560647    -0.81200
H1033       H  0.10518729  0.29378446  0.62855088     0.33500
H1034       H  0.13238767  0.30992682  0.60016865     0.38000
H1035       H  0.23393222  0.43582299  0.68164174     0.33500
H1036       H  0.20297669  0.44307552  0.67623586     0.30200
H1037       H  0.09880612  0.40322127  0.62957688     0.33500
H1038       H  0.13894882  0.41458492  0.63060092     0.30200
H1039       H  0.12491568  0.43148198  0.77288816     0.38100
H1040       H  0.13309504  0.40088619  0.77564166     0.33600
C1041       C  0.03353485  0.50168681  0.69578922    -0.20200
C1042       C  0.01216353  0.50237389  0.67397137     0.36000
C1043       C  0.02323212  0.53101242  0.65654495    -0.26200
C1044       C  0.05501024  0.55884519  0.66063031     0.02500
C1045       C  0.07655991  0.55790440  0.68183667     0.27300
C1046       C  0.06573821  0.52922656  0.69898560    -0.25300
N1047       N  0.97937101  0.47420149  0.66969761    -0.82700
H1048       H  0.00672634  0.53204824  0.64029540     0.13100
C1049       C  0.06416385  0.58984128  0.64461627     0.02400
N1050       N  0.10907026  0.58641419  0.68630414    -0.81200
H1051       H  0.08218543  0.52883823  0.71569471     0.17900
C1052       C  0.06770156  0.61681258  0.66137229    -0.26100
C1053       C  0.07242324  0.64534101  0.64706971     0.35900
C1054       C  0.07348450  0.64678472  0.61539709    -0.20100
C1055       C  0.07225571  0.62077414  0.59864059    -0.25400
C1056       C  0.06746717  0.59209776  0.61305758     0.27300
H1057       H  0.06552433  0.61505231  0.68565056     0.13100
N1058       N  0.07521850  0.67257850  0.66447074    -0.82600
H1059       H  0.07313079  0.62203896  0.57431074     0.17900
N1060       N  0.06503311  0.56492624  0.59587831    -0.81200
H1061       H  0.09887658  0.69308809  0.66063053     0.33500
H1062       H  0.07368555  0.66751874  0.68745794     0.38000
H1063       H  0.06785755  0.57045190  0.57294462     0.33500
H1064       H  0.08492150  0.56220136  0.60202547     0.30200
H1065       H  0.12173618  0.58187396  0.70301524     0.33500
H1066       H  0.12244256  0.59028985  0.66635278     0.30200
H1067       H  0.98188532  0.45465624  0.66165452     0.38100
H1068       H  0.96678011  0.47899865  0.65309182     0.33600
C1069       C  0.91336064  0.56504982  0.88116486    -0.20200
C1070       C  0.91564282  0.56278537  0.84974687     0.36000
C1071       C  0.92443922  0.54074555  0.83775920    -0.26200
C1072       C  0.93107690  0.52119303  0.85666627     0.02500
C1073       C  0.92735902  0.52234114  0.88800586     0.27300
C1074       C  0.91830986  0.54428359  0.90004454    -0.25300
N1075       N  0.90996085  0.58363693  0.83031945    -0.82700
H1076       H  0.92710476  0.53945451  0.81363997     0.13100
C1077       C  0.94250460  0.50017942  0.84295045     0.02400
N1078       N  0.93358981  0.50185602  0.90735971    -0.81200
H1079       H  0.91700681  0.54658895  0.92421235     0.17900
C1080       C  0.97536327  0.50819867  0.84718359    -0.26100
C1081       C  0.98816336  0.49124326  0.83126227     0.35900
C1082       C  0.96756373  0.46603248  0.81069891    -0.20100
C1083       C  0.93412783  0.45697618  0.80793340    -0.25400
C1084       C  0.92148166  0.47393083  0.82373079     0.27300
H1085       H  0.99126583  0.52838422  0.86222990     0.13100
N1086       N  0.02189717  0.49971764  0.83567192    -0.82600
H1087       H  0.91801893  0.43744020  0.79243722     0.17900
N1088       N  0.88763855  0.46533731  0.81972794    -0.81200
H1089       H  0.03366614  0.51896869  0.85137232     0.33500
H1090       H  0.02130265  0.47908771  0.84498965     0.38000
H1091       H  0.87548712  0.44561478  0.80453631     0.33500
H1092       H  0.87551709  0.45696805  0.84039479     0.30200
H1093       H  0.93004279  0.50591660  0.92986379     0.33500
H1094       H  0.91588170  0.47716451  0.90248352     0.30200
H1095       H  0.88521298  0.57708852  0.83301848     0.38100
H1096       H  0.91285175  0.57907337  0.80778558     0.33600
C1097       C  0.36264223  0.16202679  0.35598312    -0.20200
C1098       C  0.39668415  0.18394476  0.34955809     0.36000
C1099       C  0.40660579  0.21281491  0.33295751    -0.26200
C1100       C  0.38336669  0.22069348  0.32263882     0.02500
C1101       C  0.34928942  0.19863378  0.32867976     0.27300
C1102       C  0.33931782  0.16939997  0.34493231    -0.25300
N1103       N  0.42163134  0.17700824  0.35873381    -0.82700
H1104       H  0.43267222  0.22909709  0.32784069     0.13100
C1105       C  0.39457888  0.25119324  0.30439507     0.02400
N1106       N  0.32497277  0.20629017  0.31869361    -0.81200
H1107       H  0.31326975  0.15286658  0.34996852     0.17900
C1108       C  0.38076994  0.24782392  0.27586017    -0.26100
C1109       C  0.38771705  0.27558139  0.25890118     0.35900
C1110       C  0.40930729  0.30781012  0.27025837    -0.20100
C1111       C  0.42514959  0.31139082  0.29789019    -0.25400
C1112       C  0.41780686  0.28333268  0.31523194     0.27300
H1113       H  0.36366381  0.22333602  0.26694699     0.13100
N1114       N  0.37206673  0.27088724  0.23026105    -0.82600
H1115       H  0.44150448  0.33603058  0.30686638     0.17900
N1116       N  0.43278586  0.28741632  0.34422232    -0.81200
H1117       H  0.37843346  0.25672908  0.21670388     0.33500
H1118       H  0.34637947  0.25736419  0.23356334     0.38000
H1119       H  0.44927145  0.31251236  0.34882543     0.33500
H1120       H  0.41394362  0.27905090  0.36036875     0.30200
H1121       H  0.30110015  0.18753863  0.32478310     0.33500
H1122       H  0.32941719  0.22777740  0.32999441     0.30200
H1123       H  0.42216589  0.17663969  0.38218691     0.38100
H1124       H  0.41533043  0.15362020  0.35045681     0.33600
C1125       C  0.30472971  0.35258404  0.49351950    -0.20200
C1126       C  0.33897409  0.36550609  0.48846328     0.36000
C1127       C  0.35071074  0.36797023  0.45880148    -0.26200
C1128       C  0.32891984  0.35753885  0.43431623     0.02500
C1129       C  0.29475172  0.34379319  0.43934563     0.27300
C1130       C  0.28302760  0.34147874  0.46883519    -0.25300
N1131       N  0.36175793  0.37662539  0.51324316    -0.82700
H1132       H  0.37699894  0.37864015  0.45464776     0.13100
C1133       C  0.34215862  0.36367487  0.40325923     0.02400
N1134       N  0.27216953  0.33260530  0.41438708    -0.81200
H1135       H  0.25669297  0.33083427  0.47254396     0.17900
C1136       C  0.33749416  0.33709894  0.38515007    -0.26100
C1137       C  0.34676197  0.34172702  0.35458346     0.35900
C1138       C  0.36016578  0.37363741  0.34175920    -0.20100
C1139       C  0.36576726  0.40031341  0.36050479    -0.25400
C1140       C  0.35684214  0.39563278  0.39101076     0.27300
H1141       H  0.32619121  0.31259498  0.39487961     0.13100
N1142       N  0.34184226  0.31399946  0.33661484    -0.82600
H1143       H  0.37661864  0.42497879  0.35124669     0.17900
N1144       N  0.36187182  0.42307073  0.40950293    -0.81200
H1145       H  0.33011554  0.29216650  0.34914851     0.33500
H1146       H  0.36527621  0.31803171  0.33103454     0.38000
H1147       H  0.37321717  0.44503965  0.39716375     0.33500
H1148       H  0.33853602  0.41874407  0.41590587     0.30200
H1149       H  0.24777750  0.32276182  0.42192643     0.33500
H1150       H  0.27782798  0.35330882  0.40143090     0.30200
H1151       H  0.36216274  0.39716743  0.52291136     0.38100
H1152       H  0.38584910  0.38484889  0.50564309     0.33600
C1153       C  0.64091921  0.55591848  0.39263661    -0.20200
C1154       C  0.64444479  0.53929997  0.36754964     0.36000
C1155       C  0.61613918  0.51733112  0.35062504    -0.26200
C1156       C  0.58464066  0.51179596  0.35830427     0.02500
C1157       C  0.58084649  0.52647045  0.38454553     0.27300
C1158       C  0.60887340  0.54795981  0.40156790    -0.25300
N1159       N  0.67663043  0.54568939  0.35856899    -0.82700
H1160       H  0.61878065  0.50552457  0.33064987     0.13100
C1161       C  0.55612618  0.49281342  0.33772023     0.02400
N1162       N  0.54872996  0.52072898  0.39303074    -0.81200
H1163       H  0.60579873  0.56003050  0.42112758     0.17900
C1164       C  0.52759568  0.46419808  0.34816646    -0.26100
C1165       C  0.49887876  0.44764048  0.33039411     0.35900
C1166       C  0.49894654  0.45974947  0.30155273    -0.20100
C1167       C  0.52773490  0.48775359  0.29069959    -0.25400
C1168       C  0.55615964  0.50486284  0.30875560     0.27300
H1169       H  0.52763066  0.45513419  0.37046541     0.13100
N1170       N  0.46971739  0.41850613  0.34137512    -0.82600
H1171       H  0.52762137  0.49689867  0.26845344     0.17900
N1172       N  0.58465879  0.53492511  0.29821150    -0.81200
H1173       H  0.47370711  0.41285324  0.36303750     0.33500
H1174       H  0.46552675  0.39862036  0.32756170     0.38000
H1175       H  0.58061640  0.54042595  0.27650031     0.33500
H1176       H  0.58756164  0.55430212  0.31208577     0.30200
H1177       H  0.55013754  0.53318854  0.41305432     0.33500
H1178       H  0.54114694  0.53096744  0.37639490     0.30200
H1179       H  0.69023783  0.57009866  0.35089868     0.38100
H1180       H  0.67462143  0.53057517  0.34034412     0.33600
C1181       C  0.46394063  0.49256101  0.18970091    -0.20200
C1182       C  0.48064491  0.52514624  0.20184073     0.36000
C1183       C  0.49651397  0.55234396  0.18247955    -0.26200
C1184       C  0.49697011  0.54799769  0.15136698     0.02500
C1185       C  0.48041694  0.51569400  0.13907459     0.27300
C1186       C  0.46389091  0.48827121  0.15836021    -0.25300
N1187       N  0.48267152  0.53065604  0.23382273    -0.82700
H1188       H  0.51009750  0.57718862  0.19184411     0.13100
C1189       C  0.51865034  0.57753995  0.13289699     0.02400
N1190       N  0.48091442  0.51094035  0.10715276    -0.81200
H1191       H  0.45112565  0.46346601  0.14889373     0.17900
C1192       C  0.54622955  0.57933618  0.11883610    -0.26100
C1193       C  0.57112095  0.60898880  0.10613961     0.35900
C1194       C  0.56838071  0.63753505  0.10756102    -0.20100
C1195       C  0.53978436  0.63528325  0.11986812    -0.25400
C1196       C  0.51484460  0.60543580  0.13274672     0.27300
H1197       H  0.54917087  0.55795560  0.11913142     0.13100
N1198       N  0.59970259  0.61051258  0.09247539    -0.82600
H1199       H  0.53771562  0.65717251  0.12079482     0.17900
N1200       N  0.48620491  0.60352930  0.14656238    -0.81200
H1201       H  0.59810147  0.58757436  0.09360874     0.33500
H1202       H  0.59954884  0.61557817  0.06963209     0.38000
H1203       H  0.48725875  0.62619754  0.14480678     0.33500
H1204       H  0.46542454  0.58619620  0.13439120     0.30200
H1205       H  0.46775487  0.48569203  0.10172904     0.33500
H1206       H  0.46843288  0.52137882  0.09702333     0.30200
H1207       H  0.49694872  0.52150408  0.24261082     0.38100
H1208       H  0.49531197  0.55599784  0.23886048     0.33600
C1209       C  0.89545760  0.34110326  0.39260180    -0.20200
C1210       C  0.89172508  0.33995852  0.36106644     0.36000
C1211       C  0.89944167  0.36911586  0.34568726    -0.26200
C1212       C  0.91034457  0.39898730  0.36132574     0.02500
C1213       C  0.91091837  0.39930255  0.39297555     0.27300
C1214       C  0.90393728  0.37041575  0.40830399    -0.25300
N1215       N  0.88189312  0.30981999  0.34466598    -0.82700
H1216       H  0.89856704  0.36899509  0.32134293     0.13100
C1217       C  0.92416176  0.43021319  0.34419405     0.02400
N1218       N  0.91902836  0.42902220  0.40934052    -0.81200
H1219       H  0.90649998  0.37110766  0.43253861     0.17900
C1220       C  0.90293989  0.44024995  0.33305232    -0.26100
C1221       C  0.91532956  0.46888544  0.31531219     0.35900
C1222       C  0.94956882  0.48754433  0.30844792    -0.20100
C1223       C  0.97088740  0.47802849  0.32053305    -0.25400
C1224       C  0.95849115  0.44938162  0.33817738     0.27300
H1225       H  0.87665488  0.42552368  0.33800362     0.13100
N1226       N  0.89335110  0.47915545  0.30429339    -0.82600
H1227       H  0.99711208  0.49226937  0.31520763     0.17900
N1228       N  0.98038868  0.43889033  0.34898816    -0.81200
H1229       H  0.86901822  0.46278017  0.31133407     0.33500
H1230       H  0.90043912  0.50212689  0.31412708     0.38000
H1231       H  0.00470857  0.45518587  0.34186761     0.33500
H1232       H  0.98066449  0.44026429  0.37244559     0.30200
H1233       H  0.91771153  0.42485489  0.43249895     0.33500
H1234       H  0.94363361  0.44693547  0.40457839     0.30200
H1235       H  0.90075466  0.30445125  0.34672220     0.38100
H1236       H  0.87992183  0.31314795  0.32172750     0.33600
C1237       C  0.00872683  0.26207596  0.44438790    -0.20200
C1238       C  0.01429316  0.23538933  0.44656710     0.36000
C1239       C  0.04357446  0.24057915  0.46034110    -0.26200
C1240       C  0.06698417  0.27164951  0.47253739     0.02500
C1241       C  0.06079388  0.29792833  0.47113409     0.27300
C1242       C  0.03212458  0.29297997  0.45678658    -0.25300
N1243       N  0.99052704  0.20334172  0.43463662    -0.82700
H1244       H  0.04825018  0.22034758  0.46149717     0.13100
C1245       C  0.09736132  0.27641601  0.48772257     0.02400
N1246       N  0.08337903  0.32944489  0.48480472    -0.81200
H1247       H  0.02769460  0.31339441  0.45584727     0.17900
C1248       C  0.12867332  0.30289805  0.47913963    -0.26100
C1249       C  0.15742379  0.31077109  0.49538661     0.35900
C1250       C  0.15499558  0.29108004  0.52012657    -0.20100
C1251       C  0.12406091  0.26352086  0.52765021    -0.25400
C1252       C  0.09512687  0.25637657  0.51212945     0.27300
H1253       H  0.13050228  0.31807049  0.46018731     0.13100
N1254       N  0.18896615  0.33885954  0.48710558    -0.82600
H1255       H  0.12216128  0.24866287  0.54688931     0.17900
N1256       N  0.06333491  0.22978216  0.52192781    -0.81200
H1257       H  0.18645977  0.35092227  0.46858397     0.33500
H1258       H  0.20424000  0.32991574  0.48023136     0.38000
H1259       H  0.06597247  0.21752404  0.54021294     0.33500
H1260       H  0.04967965  0.24026503  0.52966237     0.30200
H1261       H  0.07527465  0.34615649  0.48174327     0.33500
H1262       H  0.08312053  0.32574898  0.50797682     0.30200
H1263       H  0.98998787  0.20559743  0.41131999     0.38100
H1264       H  0.99813554  0.18636063  0.43850868     0.33600
C1265       C  0.93133485  0.30198369  0.51176947    -0.20200
C1266       C  0.90602796  0.28580555  0.53348285     0.36000
C1267       C  0.91264769  0.29653626  0.56342070    -0.26200
C1268       C  0.94405165  0.32245498  0.57177385     0.02500
C1269       C  0.96954810  0.33807564  0.55038886     0.27300
C1270       C  0.96298177  0.32751012  0.52046877    -0.25300
N1271       N  0.87410101  0.25825587  0.52520934    -0.82700
H1272       H  0.89343201  0.28463856  0.58036107     0.13100
C1273       C  0.94976190  0.33367467  0.60302042     0.02400
N1274       N  0.00177767  0.36475240  0.55917927    -0.81200
H1275       H  0.98239992  0.33977009  0.50376238     0.17900
C1276       C  0.96693235  0.32394279  0.62175505    -0.26100
C1277       C  0.97384878  0.33518868  0.65155389     0.35900
C1278       C  0.96285568  0.35619115  0.66253854    -0.20100
C1279       C  0.94565034  0.36584660  0.64348613    -0.25400
C1280       C  0.93901037  0.35475815  0.61370476     0.27300
H1281       H  0.97533324  0.30795993  0.61289536     0.13100
N1282       N  0.99267080  0.32611095  0.67030321    -0.82600
H1283       H  0.93732518  0.38206718  0.65185754     0.17900
N1284       N  0.92148675  0.36476066  0.59420646    -0.81200
H1285       H  0.99813006  0.30997894  0.65884531     0.33500
H1286       H  0.01541045  0.34764506  0.67466745     0.38000
H1287       H  0.91505952  0.38014693  0.60570226     0.33500
H1288       H  0.93773440  0.37900206  0.57698932     0.30200
H1289       H  0.01783343  0.37333956  0.54068685     0.33500
H1290       H  0.99913352  0.38446858  0.56645671     0.30200
H1291       H  0.87757283  0.23889260  0.51852577     0.38100
H1292       H  0.85825970  0.24966263  0.54385343     0.33600
C1293       C  0.82295318  0.19344565  0.35785570    -0.20200
C1294       C  0.82171762  0.17171925  0.33506229     0.36000
C1295       C  0.79278793  0.15395895  0.31772240    -0.26200
C1296       C  0.76515023  0.15719504  0.32305750     0.02500
C1297       C  0.76681846  0.17980500  0.34484316     0.27300
C1298       C  0.79569478  0.19774268  0.36199855    -0.25300
N1299       N  0.84904437  0.16657259  0.33049213    -0.82700
H1300       H  0.79109553  0.13622549  0.30104188     0.13100
C1301       C  0.73338409  0.13389921  0.30833217     0.02400
N1302       N  0.73880430  0.18376161  0.34987948    -0.81200
H1303       H  0.79666206  0.21473807  0.37912866     0.17900
C1304       C  0.70752989  0.11003846  0.32613437    -0.26100
C1305       C  0.67817651  0.08503774  0.31300139     0.35900
C1306       C  0.67478784  0.08398229  0.28149606    -0.20100
C1307       C  0.69977762  0.10894147  0.26376717    -0.25400
C1308       C  0.72928174  0.13401809  0.27699755     0.27300
H1309       H  0.71079268  0.11029352  0.35025552     0.13100
N1310       N  0.65207439  0.06010686  0.33135044    -0.82600
H1311       H  0.69698151  0.10785714  0.23954860     0.17900
N1312       N  0.75537794  0.15909481  0.25883244    -0.81200
H1313       H  0.65854745  0.06426934  0.35408870     0.33500
H1314       H  0.63127180  0.06244903  0.32890111     0.38000
H1315       H  0.74849843  0.15556556  0.23618820     0.33500
H1316       H  0.75836959  0.18190652  0.26526063     0.30200
H1317       H  0.74392429  0.20122715  0.36687645     0.33500
H1318       H  0.73503163  0.19335868  0.33019735     0.30200
H1319       H  0.85099481  0.15503885  0.34969838     0.38100
H1320       H  0.84424635  0.15019416  0.31256712     0.33600
C1321       C  0.85817119  0.16204804  0.47343988    -0.20200
C1322       C  0.86888341  0.13893225  0.47184173     0.36000
C1323       C  0.85169367  0.10916875  0.48809217    -0.26200
C1324       C  0.82479560  0.10255873  0.50666608     0.02500
C1325       C  0.81529405  0.12644468  0.50964229     0.27300
C1326       C  0.83207257  0.15591940  0.49302083    -0.25300
N1327       N  0.89741918  0.14595290  0.45408035    -0.82700
H1328       H  0.85940781  0.09111190  0.48647688     0.13100
C1329       C  0.80652018  0.07054865  0.52291778     0.02400
N1330       N  0.78820461  0.12034810  0.52912148    -0.81200
H1331       H  0.82398386  0.17368380  0.49463138     0.17900
C1332       C  0.80556305  0.07092276  0.55441262    -0.26100
C1333       C  0.78464876  0.04195149  0.57056308     0.35900
C1334       C  0.76521941  0.01177172  0.55496531    -0.20100
C1335       C  0.76790155  0.01084089  0.52360306    -0.25400
C1336       C  0.78788128  0.04015616  0.50729975     0.27300
H1337       H  0.81996489  0.09426242  0.56631079     0.13100
N1338       N  0.78165910  0.04326097  0.60267323    -0.82600
H1339       H  0.75216958  0.98779678  0.51166729     0.17900
N1340       N  0.78775786  0.03952745  0.47497988    -0.81200
H1341       H  0.79711354  0.06739312  0.61071719     0.33500
H1342       H  0.79004922  0.02864794  0.61215531     0.38000
H1343       H  0.77253297  0.01532087  0.46699820     0.33500
H1344       H  0.77710616  0.05305732  0.46774448     0.30200
H1345       H  0.78452160  0.14045032  0.52901181     0.33500
H1346       H  0.76665384  0.10004754  0.52040262     0.30200
H1347       H  0.91796459  0.16673925  0.46356629     0.38100
H1348       H  0.90205048  0.12652273  0.45541333     0.33600
C1349       C  0.51135325  0.48817452  0.80317481    -0.20200
C1350       C  0.48863008  0.48589718  0.82538792     0.36000
C1351       C  0.46882525  0.45560565  0.84049779    -0.26200
C1352       C  0.47121833  0.42770082  0.83361914     0.02500
C1353       C  0.49413715  0.43013598  0.81177264     0.27300
C1354       C  0.51403198  0.46029297  0.79694305    -0.25300
N1355       N  0.48577879  0.51418655  0.83253100    -0.82700
H1356       H  0.45104451  0.45351395  0.85728784     0.13100
C1357       C  0.44843419  0.39540563  0.84806218     0.02400
N1358       N  0.49674784  0.40172816  0.80447429    -0.81200
H1359       H  0.53121061  0.46175524  0.77979344     0.17900
C1360       C  0.42449248  0.36947195  0.83031194    -0.26100
C1361       C  0.40234841  0.33841702  0.84263860     0.35900
C1362       C  0.40356320  0.33337902  0.87391037    -0.20100
C1363       C  0.42842210  0.35896419  0.89145710    -0.25400
C1364       C  0.45096323  0.38998080  0.87878286     0.27300
H1365       H  0.42296107  0.37345381  0.80655377     0.13100
N1366       N  0.37892059  0.31282244  0.82277437    -0.82600
H1367       H  0.42920529  0.35528974  0.91538848     0.17900
N1368       N  0.47601133  0.41615324  0.89700721    -0.81200
H1369       H  0.39247206  0.30939151  0.80587370     0.33500
H1370       H  0.36577329  0.29002157  0.83359605     0.38000
H1371       H  0.47439290  0.40825405  0.91918223     0.33500
H1372       H  0.49908532  0.42135260  0.88879649     0.30200
H1373       H  0.51449220  0.40746066  0.78763677     0.33500
H1374       H  0.50531112  0.39572349  0.82361661     0.30200
H1375       H  0.50839798  0.53243121  0.84164360     0.38100
H1376       H  0.46783025  0.50827815  0.84921474     0.33600
C1377       C  0.25296806  0.28004861  0.67173935    -0.20200
C1378       C  0.28360585  0.28609980  0.68332771     0.36000
C1379       C  0.28623314  0.28156263  0.71417128    -0.26200
C1380       C  0.25907091  0.27115794  0.73353120     0.02500
C1381       C  0.22875487  0.26549909  0.72230952     0.27300
C1382       C  0.22600626  0.27007244  0.69160266    -0.25300
N1383       N  0.31207517  0.29737435  0.66409550    -0.82700
H1384       H  0.30946193  0.28579084  0.72318593     0.13100
C1385       C  0.26204757  0.26416349  0.76522396     0.02400
N1386       N  0.20086093  0.25492840  0.74216982    -0.81200
H1387       H  0.20248463  0.26559476  0.68316996     0.17900
C1388       C  0.26436277  0.28614863  0.78782449    -0.26100
C1389       C  0.26737011  0.28006907  0.81820538     0.35900
C1390       C  0.26878149  0.25163348  0.82586800    -0.20100
C1391       C  0.26528942  0.22920081  0.80295893    -0.25400
C1392       C  0.26170663  0.23508823  0.77281066     0.27300
H1393       H  0.26386677  0.30812027  0.78166188     0.13100
N1394       N  0.26931969  0.30283394  0.84102173    -0.82600
H1395       H  0.26578633  0.20707690  0.80843385     0.17900
N1396       N  0.25792727  0.21179038  0.74973870    -0.81200
H1397       H  0.26914708  0.32292495  0.83137772     0.33500
H1398       H  0.24775945  0.29041672  0.85406220     0.38000
H1399       H  0.25837317  0.19168731  0.75901149     0.33500
H1400       H  0.23440663  0.20226009  0.74029809     0.30200
H1401       H  0.18038910  0.25214526  0.73042856     0.33500
H1402       H  0.19415101  0.23145452  0.75018035     0.30200
H1403       H  0.30758685  0.27759326  0.65001189     0.38100
H1404       H  0.33306239  0.30300886  0.67667511     0.33600
C1405       C  0.34927969  0.29664318  0.00099635    -0.20200
C1406       C  0.36683760  0.33077215  0.00816287     0.36000
C1407       C  0.37058696  0.34065969  0.03851638    -0.26200
C1408       C  0.35687449  0.31720481  0.06164217     0.02500
C1409       C  0.33881850  0.28318910  0.05446652     0.27300
C1410       C  0.33513813  0.27327987  0.02422948    -0.25300
N1411       N  0.38196614  0.35516910  0.98488409    -0.82700
H1412       H  0.38451025  0.36678603  0.04427415     0.13100
C1413       C  0.36311954  0.32860534  0.09334720     0.02400
N1414       N  0.32495135  0.25887893  0.07793585    -0.81200
H1415       H  0.32131127  0.24706410  0.01875834     0.17900
C1416       C  0.33657251  0.32287701  0.11204534    -0.26100
C1417       C  0.34180218  0.33351727  0.14227178     0.35900
C1418       C  0.37437918  0.34964551  0.15414886    -0.20100
C1419       C  0.40081378  0.35528810  0.13507261    -0.25400
C1420       C  0.39551834  0.34490595  0.10493268     0.27300
H1421       H  0.31171155  0.31032821  0.10286570     0.13100
N1422       N  0.31409028  0.32746519  0.16081553    -0.82600
H1423       H  0.42589732  0.36778242  0.14370029     0.17900
N1424       N  0.42287749  0.35049424  0.08606161    -0.81200
H1425       H  0.29183105  0.31351106  0.14908637     0.33500
H1426       H  0.31632079  0.35037116  0.16530016     0.38000
H1427       H  0.44519024  0.36302077  0.09792380     0.33500
H1428       H  0.41935900  0.32734159  0.08014212     0.30200
H1429       H  0.31219556  0.23493382  0.06881734     0.33500
H1430       H  0.34465700  0.26071228  0.09030608     0.30200
H1431       H  0.36291913  0.35511459  0.97287182     0.38100
H1432       H  0.39603672  0.37890477  0.99422517     0.33600
C1433       C  0.83417579  0.14026407  0.97480575    -0.20200
C1434       C  0.85376937  0.17530874  0.97387196     0.36000
C1435       C  0.88290022  0.19197533  0.99117067    -0.26200
C1436       C  0.89271389  0.17458874  0.00963785     0.02500
C1437       C  0.87336093  0.13980800  0.01077910     0.27300
C1438       C  0.84437557  0.12297496  0.99328692    -0.25300
N1439       N  0.84478584  0.19387544  0.95470031    -0.82700
H1440       H  0.89795610  0.21878305  0.99051923     0.13100
C1441       C  0.92259799  0.19356815  0.02863021     0.02400
N1442       N  0.88319271  0.12180775  0.02977231    -0.81200
H1443       H  0.82966004  0.09616175  0.99407269     0.17900
C1444       C  0.91870980  0.20154434  0.05819437    -0.26100
C1445       C  0.94637730  0.22350881  0.07559374     0.35900
C1446       C  0.97854255  0.23745211  0.06317976    -0.20100
C1447       C  0.98249911  0.22768435  0.03431519    -0.25400
C1448       C  0.95473388  0.20606787  0.01675416     0.27300
H1449       H  0.89393044  0.19166775  0.06722511     0.13100
N1450       N  0.94195973  0.23253820  0.10548229    -0.82600
H1451       H  0.00716151  0.23864621  0.02471908     0.17900
N1452       N  0.95891927  0.19792032  0.98647393    -0.81200
H1453       H  0.91678872  0.22034429  0.11115491     0.33500
H1454       H  0.95311338  0.22413697  0.12037661     0.38000
H1455       H  0.98410104  0.20963103  0.98093051     0.33500
H1456       H  0.94972297  0.17243493  0.98559058     0.30200
H1457       H  0.86615732  0.09635436  0.02825030     0.33500
H1458       H  0.90576002  0.12554625  0.02158756     0.30200
H1459       H  0.82364003  0.19255404  0.96394126     0.38100
H1460       H  0.86321593  0.21898057  0.95488758     0.33600
C1461       C  0.03806473  0.39065636  0.84045971    -0.20200
C1462       C  0.02722443  0.35770692  0.84904896     0.36000
C1463       C  0.03144738  0.35116159  0.87892701    -0.26200
C1464       C  0.04573210  0.37664752  0.90040976     0.02500
C1465       C  0.05671584  0.40951158  0.89189006     0.27300
C1466       C  0.05280404  0.41616093  0.86203312    -0.25300
N1467       N  0.01127779  0.33090082  0.82774546    -0.82700
H1468       H  0.02325128  0.32600225  0.88563600     0.13100
C1469       C  0.04913637  0.36876993  0.93184486     0.02400
N1470       N  0.07148630  0.43593344  0.91370151    -0.81200
H1471       H  0.06114844  0.44144358  0.85564190     0.17900
C1472       C  0.08077330  0.38405349  0.94455813    -0.26100
C1473       C  0.08513869  0.37933573  0.97476629     0.35900
C1474       C  0.05725615  0.35856144  0.99290204    -0.20100
C1475       C  0.02558775  0.34213520  0.97973879    -0.25400
C1476       C  0.02121967  0.34726765  0.94941452     0.27300
H1477       H  0.10230378  0.40019889  0.93097462     0.13100
N1478       N  0.11806455  0.39588323  0.98678825    -0.82600
H1479       H  0.00406333  0.32603858  0.99331532     0.17900
N1480       N  0.98855841  0.33140417  0.93658773    -0.81200
H1481       H  0.13220963  0.38881115  0.97413302     0.33500
H1482       H  0.12835782  0.42144059  0.98414525     0.38000
H1483       H  0.97072760  0.31632074  0.95245432     0.33500
H1484       H  0.98356772  0.34995328  0.93102889     0.30200
H1485       H  0.07845762  0.45866703  0.90375243     0.33500
H1486       H  0.05335637  0.43159604  0.92975341     0.30200
H1487       H  0.98855935  0.32843295  0.82214752     0.38100
H1488       H  0.00570954  0.30849534  0.83755737     0.33600
C1489       C  0.01425295  0.51663482  0.18982633    -0.20200
C1490       C  0.00387711  0.48292634  0.19301507     0.36000
C1491       C  0.01971165  0.46959772  0.17611995    -0.26200
C1492       C  0.04597647  0.48946783  0.15646681     0.02500
C1493       C  0.05559429  0.52298566  0.15258496     0.27300
C1494       C  0.03965060  0.53628920  0.16944877    -0.25300
N1495       N  0.97769679  0.46256787  0.21372770    -0.82700
H1496       H  0.01196775  0.44370579  0.17863417     0.13100
C1497       C  0.06286986  0.47441918  0.14027829     0.02400
N1498       N  0.08198870  0.54350058  0.13215379    -0.81200
H1499       H  0.04773916  0.56232205  0.16744575     0.17900
C1500       C  0.06062309  0.47138287  0.10889922    -0.26100
C1501       C  0.07110905  0.45216036  0.09342875     0.35900
C1502       C  0.08409383  0.43569832  0.10968599    -0.20100
C1503       C  0.08921016  0.44129558  0.14072519    -0.25400
C1504       C  0.07864610  0.46052271  0.15621657     0.27300
H1505       H  0.04894681  0.48247137  0.09665619     0.13100
N1506       N  0.06709395  0.44782588  0.06138714    -0.82600
H1507       H  0.09900050  0.42855413  0.15323121     0.17900
N1508       N  0.08253487  0.46488218  0.18825042    -0.81200
H1509       H  0.05693013  0.46126074  0.05280420     0.33500
H1510       H  0.09075820  0.45792095  0.05190301     0.38000
H1511       H  0.09432289  0.45290874  0.19667428     0.33500
H1512       H  0.09830921  0.49018690  0.19251201     0.30200
H1513       H  0.08593864  0.56749630  0.13187829     0.33500
H1514       H  0.10373228  0.54551434  0.14035663     0.30200
H1515       H  0.98609557  0.47153339  0.23543848     0.38100
H1516       H  0.97274043  0.43820886  0.21309720     0.33600
C1517       C  0.02093662  0.31998731  0.17819017    -0.20200
C1518       C  0.00239671  0.33475421  0.18697924     0.36000
C1519       C  0.99196335  0.33229243  0.21704237    -0.26200
C1520       C  0.99968032  0.31545027  0.23816456     0.02500
C1521       C  0.01913901  0.30188063  0.22981555     0.27300
C1522       C  0.02938966  0.30406794  0.19988198    -0.25300
N1523       N  0.99348086  0.35137354  0.16537631    -0.82700
H1524       H  0.97691988  0.34259624  0.22386164     0.13100
C1525       C  0.98520025  0.30953245  0.26850675     0.02400
N1526       N  0.02795242  0.28552513  0.25181534    -0.81200
H1527       H  0.04415194  0.29331640  0.19350188     0.17900
C1528       C  0.95884801  0.27773851  0.27519920    -0.26100
C1529       C  0.94704002  0.26933464  0.30460941     0.35900
C1530       C  0.96187331  0.29306523  0.32771823    -0.20100
C1531       C  0.98691805  0.32556544  0.32073650    -0.25400
C1532       C  0.99905215  0.33397294  0.29118355     0.27300
H1533       H  0.94798658  0.25911472  0.25758976     0.13100
N1534       N  0.91980671  0.23675455  0.31093826    -0.82600
H1535       H  0.99796123  0.34392166  0.33853060     0.17900
N1536       N  0.02581442  0.36676695  0.28422471    -0.81200
H1537       H  0.89955110  0.23277844  0.29805018     0.33500
H1538       H  0.92639951  0.21959320  0.30408653     0.38000
H1539       H  0.03309110  0.38179426  0.30345522     0.33500
H1540       H  0.04617213  0.36489841  0.27758722     0.30200
H1541       H  0.04218533  0.27664779  0.24200479     0.33500
H1542       H  0.04305924  0.30329100  0.26778388     0.30200
H1543       H  0.97706853  0.33351153  0.15011262     0.38100
H1544       H  0.98057738  0.36144684  0.17575315     0.33600
C1545       C  0.31321713  0.40776887  0.22654870    -0.20200
C1546       C  0.31391015  0.41742801  0.19652034     0.36000
C1547       C  0.28428720  0.41134164  0.18299524    -0.26200
C1548       C  0.25410784  0.39600930  0.19897440     0.02500
C1549       C  0.25399116  0.38819646  0.22957086     0.27300
C1550       C  0.28341869  0.39369051  0.24286279    -0.25300
N1551       N  0.34420500  0.43169069  0.17941660    -0.82700
H1552       H  0.28444697  0.41707548  0.15944196     0.13100
C1553       C  0.22253693  0.38585209  0.18283101     0.02400
N1554       N  0.22382510  0.37410440  0.24683218    -0.81200
H1555       H  0.28299215  0.38622606  0.26592681     0.17900
C1556       C  0.19648089  0.35264658  0.18422030    -0.26100
C1557       C  0.16683343  0.34136685  0.16817749     0.35900
C1558       C  0.16338270  0.36366924  0.14969439    -0.20100
C1559       C  0.18940255  0.39693881  0.14847356    -0.25400
C1560       C  0.21872350  0.40832708  0.16502994     0.27300
H1561       H  0.19960690  0.33518508  0.19738844     0.13100
N1562       N  0.14112578  0.30702140  0.16937704    -0.82600
H1563       H  0.18691384  0.41416402  0.13432471     0.17900
N1564       N  0.24470536  0.44256026  0.16367590    -0.81200
H1565       H  0.14862444  0.29359373  0.18231070     0.33500
H1566       H  0.12092289  0.30569493  0.18070144     0.38000
H1567       H  0.23815679  0.45575090  0.14933829     0.33500
H1568       H  0.24718372  0.45275033  0.18516366     0.30200
H1569       H  0.22788820  0.36951101  0.26887531     0.33500
H1570       H  0.21673208  0.39180287  0.24816945     0.30200
H1571       H  0.35079658  0.41368325  0.17699262     0.38100
H1572       H  0.34049633  0.43750587  0.15772214     0.33600
C1573       C  0.12871275  0.29455799  0.03471146    -0.20200
C1574       C  0.14541838  0.30855450  0.00726279     0.36000
C1575       C  0.16007378  0.29339116  0.99114887    -0.26200
C1576       C  0.15780073  0.26411920  0.00125877     0.02500
C1577       C  0.13980683  0.24918754  0.02771526     0.27300
C1578       C  0.12570215  0.26457869  0.04419525    -0.25300
N1579       N  0.14804490  0.33833823  0.99597437    -0.82700
H1580       H  0.17401719  0.30488206  0.97083673     0.13100
C1581       C  0.17682873  0.25111628  0.98534502     0.02400
N1582       N  0.13621967  0.21857582  0.03787360    -0.81200
H1583       H  0.11249037  0.25307431  0.06479101     0.17900
C1584       C  0.20170956  0.24952666  0.00108758    -0.26100
C1585       C  0.22356393  0.24209288  0.98622281     0.35900
C1586       C  0.22014947  0.23549022  0.95498724    -0.20100
C1587       C  0.19398749  0.23496433  0.93953062    -0.25400
C1588       C  0.17243195  0.24305166  0.95438220     0.27300
H1589       H  0.20521845  0.25587678  0.02479379     0.13100
N1590       N  0.25035242  0.24285167  0.00237892    -0.82600
H1591       H  0.19181621  0.23054676  0.91547496     0.17900
N1592       N  0.14688120  0.24429671  0.93798883    -0.81200
H1593       H  0.24665511  0.21896556  0.00169597     0.33500
H1594       H  0.24985122  0.24868596  0.02504358     0.38000
H1595       H  0.14721349  0.23819157  0.91538083     0.33500
H1596       H  0.12406382  0.22608612  0.94678586     0.30200
H1597       H  0.12239340  0.21083447  0.05777506     0.33500
H1598       H  0.12255876  0.20045272  0.02163576     0.30200
H1599       H  0.12423044  0.33246394  0.98970303     0.38100
H1600       H  0.16242999  0.34611399  0.97638119     0.33600
C1601       C  0.31772634  0.89341470  0.70994008    -0.20200
C1602       C  0.29160438  0.86620182  0.72508952     0.36000
C1603       C  0.26305084  0.84358260  0.70891009    -0.26200
C1604       C  0.26045625  0.84783424  0.67808706     0.02500
C1605       C  0.28760694  0.87343418  0.66253584     0.27300
C1606       C  0.31596487  0.89610703  0.67866688    -0.25300
N1607       N  0.29293466  0.86328835  0.75710727    -0.82700
H1608       H  0.24197280  0.82378082  0.72064385     0.13100
C1609       C  0.22779943  0.82862186  0.66330045     0.02400
N1610       N  0.28546786  0.87726044  0.63074459    -0.81200
H1611       H  0.33609735  0.91707137  0.66709331     0.17900
C1612       C  0.20876380  0.84350161  0.66008924    -0.26100
C1613       C  0.17767550  0.82678760  0.64594528     0.35900
C1614       C  0.16572081  0.79460999  0.63396083    -0.20100
C1615       C  0.18469596  0.77948511  0.63808672    -0.25400
C1616       C  0.21563044  0.79622847  0.65258980     0.27300
H1617       H  0.21828767  0.86836476  0.66880736     0.13100
N1618       N  0.15853834  0.84260933  0.64360032    -0.82600
H1619       H  0.17581548  0.75476262  0.62934943     0.17900
N1620       N  0.23489039  0.78068764  0.65619449    -0.81200
H1621       H  0.17148570  0.86657595  0.65263558     0.33500
H1622       H  0.13734485  0.82922285  0.65692911     0.38000
H1623       H  0.22230019  0.75665681  0.64727735     0.33500
H1624       H  0.25659872  0.79409844  0.64352294     0.30200
H1625       H  0.30738730  0.89768990  0.62277428     0.33500
H1626       H  0.28333451  0.85636200  0.62007438     0.30200
H1627       H  0.31204151  0.85875612  0.76157455     0.38100
H1628       H  0.27107621  0.84269222  0.76493726     0.33600
C1629       C  0.38344454  0.02581323  0.66020369    -0.20200
C1630       C  0.35043681  0.01491841  0.65141558     0.36000
C1631       C  0.34381536  0.01855035  0.62129579    -0.26200
C1632       C  0.36936802  0.03300478  0.59995934     0.02500
C1633       C  0.40215642  0.04389674  0.60855773     0.27300
C1634       C  0.40888029  0.04029051  0.63852476    -0.25300
N1635       N  0.32360878  0.99928321  0.67266542    -0.82700
H1636       H  0.31864159  0.01017606  0.61438399     0.13100
C1637       C  0.36180443  0.03688053  0.56853149     0.02400
N1638       N  0.42844015  0.05832625  0.58666658    -0.81200
H1639       H  0.43419427  0.04861320  0.64488946     0.17900
C1640       C  0.37015031  0.06837156  0.55853584    -0.26100
C1641       C  0.36592136  0.07369515  0.52835380     0.35900
C1642       C  0.35340434  0.04712215  0.50753049    -0.20100
C1643       C  0.34381103  0.01526246  0.51788440    -0.25400
C1644       C  0.34814721  0.00994010  0.54820999     0.27300
H1645       H  0.38033113  0.08902602  0.57423116     0.13100
N1646       N  0.37390138  0.10606986  0.51906623    -0.82600
H1647       H  0.33391359  0.99470159  0.50211930     0.17900
N1648       N  0.33933047  0.97749230  0.55837942    -0.81200
H1649       H  0.39881735  0.12271327  0.52409992     0.33500
H1650       H  0.35947702  0.11287621  0.53171156     0.38000
H1651       H  0.32949906  0.96034949  0.54070051     0.33500
H1652       H  0.36113159  0.97851756  0.56500838     0.30200
H1653       H  0.45120102  0.06522612  0.59660429     0.33500
H1654       H  0.42390584  0.03998521  0.57074827     0.30200
H1655       H  0.32611128  0.01755615  0.68780127     0.38100
H1656       H  0.30083401  0.99050751  0.66196605     0.33600
C1657       C  0.40185287  0.08048918  0.78592408    -0.20200
C1658       C  0.39655616  0.07953032  0.81727021     0.36000
C1659       C  0.38759567  0.10102009  0.83054652    -0.26200
C1660       C  0.38337448  0.12326235  0.81311061     0.02500
C1661       C  0.39058088  0.12564936  0.78200614     0.27300
C1662       C  0.40018106  0.10446284  0.76875860    -0.25300
N1663       N  0.39939538  0.05597156  0.83534621    -0.82700
H1664       H  0.38277723  0.09968645  0.85451132     0.13100
C1665       C  0.36958905  0.14236119  0.82760024     0.02400
N1666       N  0.38650965  0.14836739  0.76377533    -0.81200
H1667       H  0.40393239  0.10498604  0.74465808     0.17900
C1668       C  0.38788834  0.17709234  0.82736729    -0.26100
C1669       C  0.37596471  0.19575990  0.84175897     0.35900
C1670       C  0.34515120  0.17928642  0.85725024    -0.20100
C1671       C  0.32649498  0.14446279  0.85664478    -0.25400
C1672       C  0.33829932  0.12589597  0.84194258     0.27300
H1673       H  0.41178775  0.18968392  0.81617463     0.13100
N1674       N  0.39516458  0.23135884  0.84074929    -0.82600
H1675       H  0.30292806  0.13156150  0.86836075     0.17900
N1676       N  0.31870133  0.09029084  0.84164490    -0.81200
H1677       H  0.41727052  0.23947267  0.82884803     0.33500
H1678       H  0.38151895  0.23925680  0.82865890     0.38000
H1679       H  0.29643584  0.08196442  0.85331219     0.33500
H1680       H  0.31238717  0.08265586  0.81929718     0.30200
H1681       H  0.39263730  0.14698791  0.74138656     0.33500
H1682       H  0.36134786  0.14080624  0.76407569     0.30200
H1683       H  0.42413189  0.06207721  0.83431415     0.38100
H1684       H  0.39428933  0.05804121  0.85791023     0.33600
C1685       C  0.49852117  0.02768719  0.80490307    -0.20200
C1686       C  0.50301261  0.00664806  0.82432041     0.36000
C1687       C  0.53256841  0.01954629  0.84089683    -0.26200
C1688       C  0.55770287  0.05290218  0.83854556     0.02500
C1689       C  0.55283170  0.07427467  0.82026186     0.27300
C1690       C  0.52323370  0.06154140  0.80377784    -0.25300
N1691       N  0.47789321  0.97220598  0.82685831    -0.82700
H1692       H  0.53650548  0.00329353  0.85510449     0.13100
C1693       C  0.59008361  0.06406343  0.85317110     0.02400
N1694       N  0.57836004  0.10858365  0.81791742    -0.81200
H1695       H  0.52003345  0.07795993  0.78913445     0.17900
C1696       C  0.61565705  0.06519147  0.83588357    -0.26100
C1697       C  0.64515368  0.07100721  0.84935405     0.35900
C1698       C  0.64933654  0.07626404  0.88074759    -0.20100
C1699       C  0.62449677  0.07706958  0.89780463    -0.25400
C1700       C  0.59468357  0.07068782  0.88429387     0.27300
H1701       H  0.61198194  0.06015810  0.81195458     0.13100
N1702       N  0.67055822  0.07065477  0.83144189    -0.82600
H1703       H  0.62754036  0.08073745  0.92191719     0.17900
N1704       N  0.56857086  0.06965296  0.90212474    -0.81200
H1705       H  0.66355068  0.06612041  0.80883845     0.33500
H1706       H  0.69167660  0.09436380  0.83254575     0.38000
H1707       H  0.57564060  0.07463300  0.92468775     0.33500
H1708       H  0.56517127  0.08875298  0.89480119     0.30200
H1709       H  0.57110345  0.12096457  0.80329127     0.33500
H1710       H  0.58106885  0.11944944  0.83911781     0.30200
H1711       H  0.45692744  0.97091083  0.83646784     0.38100
H1712       H  0.48536895  0.96016193  0.84165593     0.33600
C1713       C  0.46775248  0.96271260  0.68922262    -0.20200
C1714       C  0.50061548  0.98477729  0.67942210     0.36000
C1715       C  0.51715142  0.97257597  0.66199317    -0.26200
C1716       C  0.50165997  0.93902481  0.65359936     0.02500
C1717       C  0.46883213  0.91704254  0.66287146     0.27300
C1718       C  0.45229268  0.92905023  0.68054661    -0.25300
N1719       N  0.51748681  0.01927938  0.68761337    -0.82700
H1720       H  0.54256075  0.98936229  0.65507175     0.13100
C1721       C  0.52076093  0.92769360  0.63549886     0.02400
N1722       N  0.45245032  0.88264143  0.65436011    -0.81200
H1723       H  0.42713536  0.91177232  0.68775540     0.17900
C1724       C  0.52621677  0.90301532  0.64667107    -0.26100
C1725       C  0.54886396  0.89593964  0.63253117     0.35900
C1726       C  0.56667083  0.91441606  0.60705515    -0.20100
C1727       C  0.55888471  0.93694942  0.59459797    -0.25400
C1728       C  0.53611659  0.94366897  0.60842107     0.27300
H1729       H  0.51408380  0.89047320  0.66732551     0.13100
N1730       N  0.55525800  0.87171671  0.64504293    -0.82600
H1731       H  0.57169870  0.95050107  0.57451789     0.17900
N1732       N  0.52936901  0.96756730  0.59565638    -0.81200
H1733       H  0.54100537  0.86136479  0.66442878     0.33500
H1734       H  0.54720453  0.85236984  0.62941511     0.38000
H1735       H  0.54311555  0.97753599  0.57595378     0.33500
H1736       H  0.50437412  0.95501527  0.58949253     0.30200
H1737       H  0.42844075  0.86966574  0.66327087     0.33500
H1738       H  0.44999659  0.88129127  0.63096815     0.30200
H1739       H  0.50582737  0.02990362  0.67632627     0.38100
H1740       H  0.54201735  0.03154162  0.67992712     0.33600
C1741       C  0.48794240  0.95223139  0.19712008    -0.20200
C1742       C  0.47024940  0.91914702  0.18606938     0.36000
C1743       C  0.44146587  0.90841043  0.16870522    -0.26200
C1744       C  0.43043730  0.93010535  0.16169436     0.02500
C1745       C  0.44914216  0.96349792  0.17101445     0.27300
C1746       C  0.47748588  0.97414459  0.18870881    -0.25300
N1747       N  0.48124213  0.89646215  0.19264976    -0.82700
H1748       H  0.42714193  0.88286383  0.16117185     0.13100
C1749       C  0.39799590  0.91757985  0.14669782     0.02400
N1750       N  0.43879058  0.98632078  0.16287240    -0.81200
H1751       H  0.49102733  0.99962467  0.19649528     0.17900
C1752       C  0.37282750  0.91837479  0.16300300    -0.26100
C1753       C  0.34362788  0.91222244  0.14892668     0.35900
C1754       C  0.33957842  0.90537842  0.11778775    -0.20100
C1755       C  0.36341909  0.90168295  0.10190221    -0.25400
C1756       C  0.39279835  0.90777365  0.11617234     0.27300
H1757       H  0.37663631  0.92516728  0.18661498     0.13100
N1758       N  0.31844040  0.91406838  0.16586138    -0.82600
H1759       H  0.36018296  0.89629077  0.07801669     0.17900
N1760       N  0.41783094  0.90536415  0.09960056    -0.81200
H1761       H  0.32530962  0.91964561  0.18842890     0.33500
H1762       H  0.29703731  0.89052999  0.16540459     0.38000
H1763       H  0.41013139  0.89780265  0.07746829     0.33500
H1764       H  0.43887522  0.92910988  0.09846741     0.30200
H1765       H  0.45501706  0.00991234  0.17168069     0.33500
H1766       H  0.44039902  0.98858225  0.13946717     0.30200
H1767       H  0.50411798  0.90523568  0.18194320     0.38100
H1768       H  0.46508750  0.87308752  0.18338735     0.33600
C1769       C  0.27442249  0.97423892  0.16803709    -0.20200
C1770       C  0.25047831  0.97404194  0.18743589     0.36000
C1771       C  0.25963989  0.98673929  0.21674847    -0.26200
C1772       C  0.29239675  0.00027893  0.22680753     0.02500
C1773       C  0.31674431  0.00227809  0.20675832     0.27300
C1774       C  0.30747795  0.98916520  0.17754587    -0.25300
N1775       N  0.21701495  0.96095320  0.17727751    -0.82700
H1776       H  0.24097248  0.98539663  0.23206996     0.13100
C1777       C  0.30024242  0.01071686  0.25879046     0.02400
N1778       N  0.35064459  0.01725629  0.21628654    -0.81200
H1779       H  0.32590725  0.98962452  0.16245516     0.17900
C1780       C  0.31431686  0.99671756  0.27677088    -0.26100
C1781       C  0.31925104  0.00359853  0.30779356     0.35900
C1782       C  0.30929049  0.02445575  0.32112198    -0.20100
C1783       C  0.29616364  0.03918415  0.30287138    -0.25400
C1784       C  0.29197566  0.03292678  0.27186029     0.27300
H1785       H  0.32056028  0.97955926  0.26670753     0.13100
N1786       N  0.33347137  0.98882313  0.32577186    -0.82600
H1787       H  0.28931139  0.05593190  0.31284914     0.17900
N1788       N  0.27936228  0.04902514  0.25356070    -0.81200
H1789       H  0.33994936  0.97464235  0.31235738     0.33500
H1790       H  0.31514583  0.97242342  0.34065257     0.38000
H1791       H  0.27441912  0.06456616  0.26665600     0.33500
H1792       H  0.29807511  0.06426084  0.23841317     0.30200
H1793       H  0.36538911  0.01654695  0.19893574     0.33500
H1794       H  0.35938953  0.04226892  0.22077825     0.30200
H1795       H  0.21776857  0.97595505  0.15970214     0.38100
H1796       H  0.20252636  0.96272711  0.19427836     0.33600
C1797       C  0.28493523  0.15026176  0.97199566    -0.20200
C1798       C  0.30783349  0.14889190  0.99138763     0.36000
C1799       C  0.29793855  0.11988680  0.00781516    -0.26200
C1800       C  0.26584109  0.09217036  0.00506015     0.02500
C1801       C  0.24246288  0.09394872  0.98686927     0.27300
C1802       C  0.25212301  0.12315940  0.97081784    -0.25300
N1803       N  0.34113709  0.17662966  0.99396310    -0.82700
H1804       H  0.31573833  0.11829030  0.02195351     0.13100
C1805       C  0.25901509  0.06030317  0.01783837     0.02400
N1806       N  0.20952644  0.06567512  0.98378144    -0.81200
H1807       H  0.23435818  0.12405495  0.95608134     0.17900
C1808       C  0.23642431  0.04535533  0.04161365    -0.26100
C1809       C  0.23180979  0.01624843  0.05520766     0.35900
C1810       C  0.25039847  0.00212505  0.04468983    -0.20100
C1811       C  0.27159424  0.01651313  0.01978262    -0.25400
C1812       C  0.27609181  0.04529590  0.00637330     0.27300
H1813       H  0.22301325  0.05686653  0.04998240     0.13100
N1814       N  0.20919848  0.00179195  0.08003666    -0.82600
H1815       H  0.28548846  0.00571521  0.01095710     0.17900
N1816       N  0.29850397  0.05983709  0.98137186    -0.81200
H1817       H  0.19862634  0.01600402  0.08560615     0.33500
H1818       H  0.18970886  0.97874511  0.07285676     0.38000
H1819       H  0.30960878  0.04609785  0.97588703     0.33500
H1820       H  0.28449021  0.05857271  0.96271021     0.30200
H1821       H  0.19535448  0.07108539  0.96954528     0.33500
H1822       H  0.21148828  0.04678162  0.97327789     0.30200
H1823       H  0.33977833  0.19631034  0.00345238     0.38100
H1824       H  0.35489566  0.17133024  0.00883663     0.33600
C1825       C  0.29893912  0.92214104  0.99081470    -0.20200
C1826       C  0.27755004  0.92172562  0.96850725     0.36000
C1827       C  0.28767412  0.92627380  0.93827612    -0.26200
C1828       C  0.31847719  0.93059848  0.92985844     0.02500
C1829       C  0.33972619  0.93069745  0.95233038     0.27300
C1830       C  0.32995948  0.92712273  0.98266450    -0.25300
N1831       N  0.24584738  0.91719672  0.97676634    -0.82700
H1832       H  0.27168227  0.92696725  0.92125594     0.13100
C1833       C  0.32895593  0.93666419  0.89773334     0.02400
N1834       N  0.37092477  0.93396456  0.94420405    -0.81200
H1835       H  0.34611820  0.92714907  0.99993239     0.17900
C1836       C  0.36000027  0.96421687  0.89067629    -0.26100
C1837       C  0.37204859  0.97029783  0.86112751     0.35900
C1838       C  0.35180350  0.94946137  0.83767515    -0.20100
C1839       C  0.32004091  0.92275030  0.84431505    -0.25400
C1840       C  0.30862447  0.91567173  0.87425862     0.27300
H1841       H  0.37519494  0.98090983  0.90847395     0.13100
N1842       N  0.40452176  0.99809784  0.85482080    -0.82600
H1843       H  0.30464623  0.90675401  0.82622870     0.17900
N1844       N  0.27684886  0.88702112  0.88093189    -0.81200
H1845       H  0.41508291  0.01229553  0.87423326     0.33500
H1846       H  0.41970493  0.98884288  0.84869136     0.38000
H1847       H  0.26507539  0.87428583  0.86118425     0.33500
H1848       H  0.28097911  0.87092543  0.89367284     0.30200
H1849       H  0.38357570  0.93368624  0.96332983     0.33500
H1850       H  0.36582669  0.91315809  0.93135696     0.30200
H1851       H  0.25017982  0.93759030  0.98988799     0.38100
H1852       H  0.23300653  0.91727932  0.95770605     0.33600
C1853       C  0.00241694  0.75207955  0.95200483    -0.20200
C1854       C  0.00284842  0.75455211  0.98366037     0.36000
C1855       C  0.03265150  0.77561965  0.99840924    -0.26200
C1856       C  0.06225589  0.79425319  0.98216329     0.02500
C1857       C  0.06152267  0.79332216  0.95042743     0.27300
C1858       C  0.03148409  0.77213260  0.93561014    -0.25300
N1859       N  0.97347711  0.73529432  0.00132623    -0.82700
H1860       H  0.03296764  0.77635428  0.02277147     0.13100
C1861       C  0.09395283  0.81350257  0.99873124     0.02400
N1862       N  0.09145542  0.81316661  0.93349198    -0.81200
H1863       H  0.03117404  0.76967463  0.91133994     0.17900
C1864       C  0.11943514  0.80674150  0.99367248    -0.26100
C1865       C  0.14960074  0.82403721  0.00938050     0.35900
C1866       C  0.15415207  0.84839305  0.03075884    -0.20100
C1867       C  0.12856679  0.85503326  0.03572816    -0.25400
C1868       C  0.09853254  0.83781274  0.02002819     0.27300
H1869       H  0.11564517  0.78774126  0.97750877     0.13100
N1870       N  0.17558863  0.81715933  0.00349980    -0.82600
H1871       H  0.13180565  0.87346367  0.05231792     0.17900
N1872       N  0.07261698  0.84486226  0.02563934    -0.81200
H1873       H  0.16807042  0.79835749  0.98736543     0.33500
H1874       H  0.19555532  0.83847285  0.99414235     0.38000
H1875       H  0.07978465  0.86316938  0.04222567     0.33500
H1876       H  0.06915240  0.85459547  0.00590845     0.30200
H1877       H  0.08673485  0.80937585  0.91042572     0.33500
H1878       H  0.09939324  0.83803360  0.93782404     0.30200
H1879       H  0.95546496  0.74038589  0.99405188     0.38100
H1880       H  0.96465015  0.71014475  0.99767677     0.33600
C1881       C  0.18767856  0.81813639  0.13996884    -0.20200
C1882       C  0.20243978  0.80211096  0.15415647     0.36000
C1883       C  0.18255312  0.77221542  0.16950818    -0.26200
C1884       C  0.14809579  0.75783387  0.17095656     0.02500
C1885       C  0.13312255  0.77363030  0.15700723     0.27300
C1886       C  0.15304697  0.80367543  0.14177191    -0.25300
N1887       N  0.23765703  0.81628216  0.15344167    -0.82700
H1888       H  0.19411083  0.76031708  0.18061408     0.13100
C1889       C  0.12807089  0.72748125  0.18896235     0.02400
N1890       N  0.09776609  0.75918343  0.15862242    -0.81200
H1891       H  0.14134014  0.81543122  0.13069436     0.17900
C1892       C  0.12097362  0.73097483  0.21888351    -0.26100
C1893       C  0.09977369  0.70316330  0.23628196     0.35900
C1894       C  0.08539341  0.67108450  0.22344304    -0.20100
C1895       C  0.09398463  0.66751094  0.19392668    -0.25400
C1896       C  0.11498923  0.69552799  0.17639655     0.27300
H1897       H  0.13137188  0.75562299  0.22841866     0.13100
N1898       N  0.09208217  0.70738989  0.26674533    -0.82600
H1899       H  0.08266744  0.64299548  0.18392437     0.17900
N1900       N  0.12242864  0.69174161  0.14574637    -0.81200
H1901       H  0.10436115  0.73250464  0.27264050     0.33500
H1902       H  0.10127142  0.69627759  0.28080112     0.38000
H1903       H  0.11095961  0.66663551  0.13997782     0.33500
H1904       H  0.11206552  0.70191436  0.13194766     0.30200
H1905       H  0.09066199  0.77402502  0.14748143     0.33500
H1906       H  0.08678048  0.73657437  0.14704000     0.30200
H1907       H  0.24260081  0.79900574  0.14359294     0.38100
H1908       H  0.24621593  0.82032017  0.17559786     0.33600
loop_ 
_geom_bond_atom_site_label_1 
_geom_bond_atom_site_label_2 
_geom_bond_distance 
_geom_bond_site_symmetry_2 
_ccdc_geom_bond_type 
O1          Cr19   2.010       .  S
O1            C9   1.266       .  A
O2          Cr19   1.953       .  S
O2            C3   1.256       .  A
C3            O4   1.271       .  A
C3         C1754   1.477       .  S
O4          Cr20   2.037       .  S
O5          Cr20   1.969       .  S
O5            C6   1.260       .  A
C6            O7   1.272       .  A
C6         C1881   1.489       .  S
O7          Cr21   2.027       .  S
O8          Cr21   1.970       .  S
O8            C9   1.260       .  A
C9         C1769   1.476       .  S
O10         Cr19   1.956       .  S
O10          C18   1.258       .  A
O11         Cr19   2.017       .  S
O11          C12   1.266       .  A
C12          O13   1.255       .  A
C12        C1825   1.471   1_554  S
O13         Cr20   1.965       .  S
O14         Cr20   2.017       .  S
O14          C15   1.268       .  A
C15          O16   1.259       .  A
C15        C1866   1.480       .  S
O16         Cr21   1.965       .  S
O17         Cr21   2.031       .  S
O17          C18   1.270       .  A
C18        C1810   1.491   1_565  S
Cr19         O22   1.763       .  S
Cr20         O22   1.769       .  S
Cr21         O22   1.767       .  S
O23         Cr41   2.022       .  S
O23          C31   1.267       .  A
O24         Cr41   1.960   1_545  S
O24          C25   1.256       .  A
C25          O26   1.273       .  A
C25        C1657   1.481       .  S
O26         Cr42   2.042       .  S
O27         Cr42   1.973       .  S
O27          C28   1.261       .  A
C28          O29   1.271   1_545  A
C28        C1685   1.491       .  S
O29         Cr43   2.024       .  S
O30         Cr43   1.960       .  S
O30          C31   1.255       .  A
C31        C1838   1.474       .  S
O32         Cr41   1.955       .  S
O32          C40   1.255       .  A
O33         Cr41   2.016   1_545  S
O33          C34   1.267       .  A
C34          O35   1.259       .  A
C34        C1629   1.490       .  S
O35         Cr42   1.971       .  S
O36         Cr42   2.032       .  S
O36          C37   1.272   1_545  A
C37          O38   1.258       .  A
C37        C1713   1.495       .  S
O38         Cr43   1.962       .  S
O39         Cr43   2.034       .  S
O39          C40   1.271       .  A
C40        C1601   1.474       .  S
Cr41         O44   1.762       .  S
Cr42         O44   1.766   1_545  S
Cr43         O44   1.764       .  S
O45         Cr63   1.970       .  S
O45          C53   1.263       .  A
O46         Cr63   1.990       .  S
O46          C47   1.257       .  A
C47          O48   1.263       .  A
C47        C1502   1.479       .  S
O48         Cr64   2.013       .  S
O49         Cr64   1.989       .  S
O49          C50   1.262       .  A
C50          O51   1.263       .  A
C50        C1558   1.487       .  S
O51         Cr65   1.991       .  S
O52         Cr65   2.012       .  S
O52          C53   1.273       .  A
C53        C1517   1.480       .  S
O54         Cr63   1.992       .  S
O54          C62   1.256       .  A
O55         Cr63   1.983       .  S
O55          C56   1.266       .  A
C56          O57   1.268       .  A
C56        C1474   1.485   1_554  S
O57         Cr64   2.002       .  S
O58         Cr64   1.994       .  S
O58          C59   1.266       .  A
C59          O60   1.266       .  A
C59        C1573   1.499       .  S
O60         Cr65   1.996       .  S
O61         Cr65   2.000       .  S
O61          C62   1.259       .  A
C62        C1446   1.478   1_455  S
Cr63         O66   1.774       .  S
Cr64         O66   1.766       .  S
Cr65         O66   1.768       .  S
O67         Cr85   1.953       .  S
O67          C75   1.255       .  A
O68         Cr85   2.013       .  S
O68          C69   1.267       .  A
C69          O70   1.258       .  A
C69        C1390   1.487       .  S
O70         Cr86   1.962       .  S
O71         Cr86   2.038       .  S
O71          C72   1.275       .  A
C72          O73   1.260       .  A
C72        C1670   1.494       .  S
O73         Cr87   1.968       .  S
O74         Cr87   2.039       .  S
O74          C75   1.273       .  A
C75        C1362   1.477       .  S
O76         Cr85   2.014       .  S
O76          C84   1.266       .  A
O77         Cr85   1.949       .  S
O77          C78   1.253       .  A
C78          O79   1.273       .  A
C78        C1586   1.478       .  S
O79         Cr86   2.046       .  S
O80         Cr86   1.964       .  S
O80          C81   1.258       .  A
C81          O82   1.271       .  A
C81        C1797   1.484       .  S
O82         Cr87   2.023       .  S
O83         Cr87   1.963       .  S
O83          C84   1.256       .  A
C84        C1405   1.478   1_556  S
Cr85         O88   1.761       .  S
Cr86         O88   1.764       .  S
Cr87         O88   1.762       .  S
O89        Cr107   1.954       .  S
O89          C97   1.259       .  A
O90        Cr107   1.989       .  S
O90          C91   1.260       .  A
C91          O92   1.261       .  A
C91        C1237   1.487   1_655  S
O92        Cr108   2.000       .  S
O93        Cr108   2.004       .  S
O93          C94   1.267       .  A
C94          O95   1.263       .  A
C94        C1321   1.486       .  S
O95        Cr109   1.982       .  S
O96        Cr109   2.004       .  S
O96          C97   1.268       .  A
C97        C1265   1.463       .  S
O98        Cr107   1.996       .  S
O98         C106   1.259       .  A
O99        Cr107   1.962       .  S
O99         C100   1.260       .  A
C100        O101   1.271       .  A
C100       C1530   1.468       .  S
O101       Cr108   2.008       .  S
O102       Cr108   1.985       .  S
O102        C103   1.261       .  A
C103        O104   1.261       .  A
C103       C1293   1.480       .  S
O104       Cr109   1.984       .  S
O105       Cr109   2.000       .  S
O105        C106   1.260       .  A
C106       C1209   1.475       .  S
Cr107       O110   1.771       .  S
Cr108       O110   1.765       .  S
Cr109       O110   1.768       .  S
O111       Cr129   1.992       .  S
O111        C119   1.258       .  A
O112       Cr129   1.984       .  S
O112        C113   1.265       .  A
C113        O114   1.271       .  A
C113       C1418   1.491       .  S
O114       Cr130   2.009       .  S
O115       Cr130   1.990       .  S
O115        C116   1.264       .  A
C116        O117   1.264       .  A
C116       C1181   1.487       .  S
O117       Cr131   1.993       .  S
O118       Cr131   1.998       .  S
O118        C119   1.261       .  A
C119       C1545   1.475       .  S
O120       Cr129   1.981       .  S
O120        C128   1.263       .  A
O121       Cr129   1.982       .  S
O121        C122   1.257       .  A
C122        O123   1.265       .  A
C122       C1110   1.485       .  S
O123       Cr130   2.014       .  S
O124       Cr130   2.001       .  S
O124        C125   1.262       .  A
C125        O126   1.262       .  A
C125       C1166   1.473       .  S
O126       Cr131   1.985       .  S
O127       Cr131   2.009       .  S
O127        C128   1.270       .  A
C128       C1138   1.491       .  S
Cr129       O132   1.767       .  S
Cr130       O132   1.767       .  S
Cr131       O132   1.763       .  S
O133       Cr151   2.007   1_655  S
O133        C141   1.266       .  A
O134       Cr151   1.950       .  S
O134        C135   1.254       .  A
C135        O136   1.272       .  A
C135       C1013   1.474       .  S
O136       Cr152   2.041       .  S
O137       Cr152   1.973       .  S
O137        C138   1.261       .  A
C138        O139   1.268   1_455  A
C138       C1041   1.481       .  S
O139       Cr153   2.012       .  S
O140       Cr153   1.951       .  S
O140        C141   1.255       .  A
C141       C1278   1.467       .  S
O142       Cr151   1.952   1_655  S
O142        C150   1.255       .  A
O143       Cr151   2.008       .  S
O143        C144   1.265       .  A
C144        O145   1.258       .  A
C144       C1461   1.481       .  S
O145       Cr152   1.967       .  S
O146       Cr152   2.025       .  S
O146        C147   1.272   1_455  A
C147        O148   1.257       .  A
C147       C1082   1.479       .  S
O148       Cr153   1.952       .  S
O149       Cr153   2.022       .  S
O149        C150   1.266       .  A
C150        C985   1.473       .  S
Cr151       O154   1.756       .  S
Cr152       O154   1.764       .  S
Cr153       O154   1.764   1_655  S
O155       Cr173   1.987       .  S
O155        C163   1.266       .  A
O156       Cr173   1.993       .  S
O156        C157   1.258       .  A
C157        O158   1.261       .  A
C157        C901   1.478       .  S
O158       Cr174   2.001       .  S
O159       Cr174   1.999       .  S
O159        C160   1.264       .  A
C160        O161   1.265       .  A
C160       C1097   1.485       .  S
O161       Cr175   1.993       .  S
O162       Cr175   2.000       .  S
O162        C163   1.268       .  A
C163       C1782   1.481       .  S
O164       Cr173   1.995       .  S
O164        C172   1.258       .  A
O165       Cr173   1.986       .  S
O165        C166   1.266       .  A
C166        O167   1.270       .  A
C166       C1642   1.485       .  S
O167       Cr174   2.010       .  S
O168       Cr174   1.991       .  S
O168        C169   1.263       .  A
C169        O170   1.260       .  A
C169        C957   1.478       .  S
O170       Cr175   1.980       .  S
O171       Cr175   2.002       .  S
O171        C172   1.260       .  A
C172        C942   1.477   1_545  S
Cr173       O176   1.776       .  S
Cr174       O176   1.769       .  S
Cr175       O176   1.769       .  S
O177       Cr195   1.957       .  S
O177        C185   1.254       .  A
O178       Cr195   2.012       .  S
O178        C179   1.265       .  A
C179        O180   1.256       .  A
C179       C1377   1.487       .  S
O180       Cr196   1.962       .  S
O181       Cr196   2.017       .  S
O181        C182   1.271       .  A
C182        O183   1.262       .  A
C182       C1026   1.490       .  S
O183       Cr197   1.976       .  S
O184       Cr197   2.025       .  S
O184        C185   1.267       .  A
C185        C886   1.476       .  S
O186       Cr195   2.015       .  S
O186        C194   1.268       .  A
O187       Cr195   1.953       .  S
O187        C188   1.254       .  A
C188        O189   1.271       .  A
C188        C970   1.471       .  S
O189       Cr196   2.036       .  S
O190       Cr196   1.978       .  S
O190        C191   1.261       .  A
C191        O192   1.267       .  A
C191       C1250   1.481       .  S
O192       Cr197   2.013       .  S
O193       Cr197   1.971       .  S
O193        C194   1.261       .  A
C194       C1125   1.485       .  S
Cr195       O198   1.764       .  S
Cr196       O198   1.767       .  S
Cr197       O198   1.766       .  S
O199       Cr217   1.954       .  S
O199        C207   1.255       .  A
O200       Cr217   2.008       .  S
O200        C201   1.267       .  A
C201        O202   1.260       .  A
C201        C817   1.478       .  S
O202       Cr218   1.972       .  S
O203       Cr218   2.021       .  S
O203        C204   1.268       .  A
C204        O205   1.260       .  A
C204        C929   1.487       .  S
O205       Cr219   1.976       .  S
O206       Cr219   2.037       .  S
O206        C207   1.272       .  A
C207        C802   1.476   1_455  S
O208       Cr217   2.015       .  S
O208        C216   1.266       .  A
O209       Cr217   1.957       .  S
O209        C210   1.256       .  A
C210        O211   1.269       .  A
C210       C1054   1.471       .  S
O211       Cr218   2.030       .  S
O212       Cr218   1.966       .  S
O212        C213   1.261       .  A
C213        O214   1.273       .  A
C213       C1614   1.492       .  S
O214       Cr219   2.025       .  S
O215       Cr219   1.966       .  S
O215        C216   1.257       .  A
C216        C845   1.486       .  S
Cr217       O220   1.762       .  S
Cr218       O220   1.767       .  S
Cr219       O220   1.762       .  S
O221       Cr239   1.988       .  S
O221        C229   1.257       .  A
O222       Cr239   1.974       .  S
O222        C223   1.263       .  A
C223        O224   1.271       .  A
C223        C733   1.488       .  S
O224       Cr240   2.009       .  S
O225       Cr240   1.992       .  S
O225        C226   1.262       .  A
C226        O227   1.263       .  A
C226        C690   1.489       .  S
O227       Cr241   1.997       .  S
O228       Cr241   2.004       .  S
O228        C229   1.262       .  A
C229       C1334   1.473   1_565  S
O230       Cr239   1.982       .  S
O230        C238   1.265       .  A
O231       Cr239   1.986       .  S
O231        C232   1.259       .  A
C232        O233   1.260       .  A
C232       C1726   1.485       .  S
O233       Cr240   2.000       .  S
O234       Cr240   1.997       .  S
O234        C235   1.266       .  A
C235        O236   1.263       .  A
C235        C718   1.480       .  S
O236       Cr241   1.982       .  S
O237       Cr241   2.005       .  S
O237        C238   1.269       .  A
C238        C761   1.483       .  S
Cr239       O242   1.767       .  S
Cr240       O242   1.766       .  S
Cr241       O242   1.767       .  S
O243       Cr261   1.984   1_455  S
O243        C251   1.252       .  A
O244       Cr261   1.980       .  S
O244        C245   1.269       .  A
C245        O246   1.276       .  A
C245        C649   1.479       .  S
O246       Cr262   2.015       .  S
O247       Cr262   1.993       .  S
O247        C248   1.262   1_655  A
C248        O249   1.259       .  A
C248       C1489   1.470       .  S
O249       Cr263   1.979       .  S
O250       Cr263   2.010       .  S
O250        C251   1.259       .  A
C251       C1894   1.481       .  S
O252       Cr261   1.986       .  S
O252        C260   1.269   1_655  A
O253       Cr261   1.975       .  S
O253        C254   1.249       .  A
C254        O255   1.259       .  A
C254        C621   1.487       .  S
O255       Cr262   2.018       .  S
O256       Cr262   1.991       .  S
O256        C257   1.264       .  A
C257        O258   1.264       .  A
C257       C1222   1.481       .  S
O258       Cr263   1.987   1_655  S
O259       Cr263   2.007       .  S
O259        C260   1.272       .  A
C260        C830   1.485       .  S
Cr261       O264   1.774       .  S
Cr262       O264   1.772       .  S
Cr263       O264   1.771   1_455  S
O265       Cr283   1.986       .  S
O265        C273   1.265       .  A
O266       Cr283   1.984       .  S
O266        C267   1.258       .  A
C267        O268   1.265       .  A
C267        C677   1.498       .  S
O268       Cr284   2.017       .  S
O269       Cr284   1.989       .  S
O269        C270   1.263       .  A
C270        O271   1.264       .  A
C270        C789   1.492       .  S
O271       Cr285   1.996       .  S
O272       Cr285   2.000       .  S
O272        C273   1.270       .  A
C273        C565   1.487       .  S
O274       Cr283   1.985       .  S
O274        C282   1.258       .  A
O275       Cr283   1.992       .  S
O275        C276   1.267       .  A
C276        O277   1.270       .  A
C276        C593   1.491       .  S
O277       Cr284   2.003       .  S
O278       Cr284   1.993       .  S
O278        C279   1.265       .  A
C279        O280   1.264       .  A
C279        C634   1.487       .  S
O280       Cr285   1.993       .  S
O281       Cr285   2.007       .  S
O281        C282   1.262       .  A
C282       C1153   1.487       .  S
Cr283       O286   1.768       .  S
Cr284       O286   1.763       .  S
Cr285       O286   1.769       .  S
O287       Cr305   2.004       .  S
O287        C295   1.264       .  A
O288       Cr305   1.959       .  S
O288        C289   1.256       .  A
C289        O290   1.270       .  A
C289        C509   1.481       .  S
O290       Cr306   2.035       .  S
O291       Cr306   1.965       .  S
O291        C292   1.262       .  A
C292        O293   1.273       .  A
C292       C1349   1.485       .  S
O293       Cr307   2.030       .  S
O294       Cr307   1.964       .  S
O294        C295   1.257       .  A
C295        C537   1.473       .  S
O296       Cr305   1.956       .  S
O296        C304   1.256       .  A
O297       Cr305   2.008       .  S
O297        C298   1.265       .  A
C298        O299   1.258       .  A
C298        C578   1.481       .  S
O299       Cr306   1.969       .  S
O300       Cr306   2.013       .  S
O300        C301   1.267       .  A
C301        O302   1.259       .  A
C301        C873   1.484       .  S
O302       Cr307   1.971       .  S
O303       Cr307   2.036       .  S
O303        C304   1.273       .  A
C304        C705   1.487       .  S
Cr305       O308   1.763       .  S
Cr306       O308   1.768       .  S
Cr307       O308   1.768       .  S
O309       Cr327   1.964       .  S
O309        C317   1.255       .  A
O310       Cr327   2.014       .  S
O310        C311   1.267       .  A
C311        O312   1.257       .  A
C311        C774   1.486       .  S
O312       Cr328   1.962       .  S
O313       Cr328   2.025       .  S
O313        C314   1.272       .  A
C314        O315   1.260       .  A
C314        C998   1.487       .  S
O315       Cr329   1.964       .  S
O316       Cr329   2.040       .  S
O316        C317   1.271       .  A
C317       C1698   1.482       .  S
O318       Cr327   2.015       .  S
O318        C326   1.269       .  A
O319       Cr327   1.954       .  S
O319        C320   1.254       .  A
C320        O321   1.271       .  A
C320        C466   1.483   1_545  S
O321       Cr328   2.039       .  S
O322       Cr328   1.974       .  S
O322        C323   1.260       .  A
C323        O324   1.271       .  A
C323       C1433   1.492       .  S
O324       Cr329   2.030       .  S
O325       Cr329   1.959       .  S
O325        C326   1.257       .  A
C326        C481   1.479   1_556  S
Cr327       O330   1.761       .  S
Cr328       O330   1.765       .  S
Cr329       O330   1.765       .  S
O331       Cr349   1.953   1_545  S
O331        C339   1.256       .  A
O332       Cr349   2.008       .  S
O332        C333   1.264       .  A
C333        O334   1.261       .  A
C333        C746   1.477       .  S
O334       Cr350   1.975       .  S
O335       Cr350   2.019       .  S
O335        C336   1.269   1_565  A
C336        O337   1.258       .  A
C336        C914   1.486       .  S
O337       Cr351   1.977       .  S
O338       Cr351   2.023       .  S
O338        C339   1.269       .  A
C339       C1306   1.466       .  S
O340       Cr349   2.007   1_545  S
O340        C348   1.264       .  A
O341       Cr349   1.960       .  S
O341        C342   1.257       .  A
C342        O343   1.269       .  A
C342        C425   1.470       .  S
O343       Cr350   2.029       .  S
O344       Cr350   1.973       .  S
O344        C345   1.261       .  A
C345        O346   1.272       .  A
C345       C1741   1.491       .  S
O346       Cr351   2.017   1_565  S
O347       Cr351   1.966       .  S
O347        C348   1.256       .  A
C348        C494   1.480       .  S
Cr349       O352   1.762       .  S
Cr350       O352   1.764       .  S
Cr351       O352   1.763   1_545  S
O353       Cr371   1.947       .  S
O353        C361   1.252       .  A
O354       Cr371   2.022       .  S
O354        C355   1.270       .  A
C355        O356   1.260       .  A
C355        C662   1.488   1_556  S
O356       Cr372   1.972       .  S
O357       Cr372   2.018       .  S
O357        C358   1.267       .  A
C358        O359   1.258       .  A
C358        C410   1.484       .  S
O359       Cr373   1.964       .  S
O360       Cr373   2.030       .  S
O360        C361   1.269       .  A
C361       C1853   1.464   1_655  S
O362       Cr371   2.024       .  S
O362        C370   1.269       .  A
O363       Cr371   1.952       .  S
O363        C364   1.253       .  A
C364        O365   1.267       .  A
C364       C1069   1.463       .  S
O365       Cr372   2.024       .  S
O366       Cr372   1.975       .  S
O366        C367   1.262       .  A
C367        O368   1.273       .  A
C367        C522   1.494       .  S
O368       Cr373   2.024       .  S
O369       Cr373   1.959       .  S
O369        C370   1.257       .  A
C370        C858   1.490       .  S
Cr371       O374   1.759       .  S
Cr372       O374   1.766       .  S
Cr373       O374   1.760       .  S
O375       Cr393   2.012       .  S
O375        C383   1.266       .  A
O376       Cr393   1.948       .  S
O376        C377   1.252       .  A
C377        O378   1.270       .  A
C377        C397   1.475       .  S
O378       Cr394   2.038       .  S
O379       Cr394   1.967       .  S
O379        C380   1.260       .  A
C380        O381   1.273       .  A
C380        C453   1.484       .  S
O381       Cr395   2.031       .  S
O382       Cr395   1.964       .  S
O382        C383   1.258       .  A
C383        C550   1.487   1_554  S
O384       Cr393   1.946       .  S
O384        C392   1.253       .  A
O385       Cr393   2.024       .  S
O385        C386   1.269       .  A
C386        O387   1.256       .  A
C386        C606   1.485       .  S
O387       Cr394   1.960       .  S
O388       Cr394   2.019       .  S
O388        C389   1.271       .  A
C389        O390   1.257       .  A
C389        C438   1.489       .  S
O390       Cr395   1.966       .  S
O391       Cr395   2.037       .  S
O391        C392   1.271       .  A
C392       C1194   1.475       .  S
Cr393       O396   1.760       .  S
Cr394       O396   1.768       .  S
Cr395       O396   1.766       .  S
C397        C398   1.410       .  A
C397        C402   1.405       .  A
C398        C399   1.409       .  A
C398        N403   1.437       .  S
C399        C400   1.405       .  A
C399        H404   1.083       .  S
C400        C405   1.484       .  S
C400        C401   1.409       .  A
C401        C402   1.401       .  A
C401        N406   1.438   1_554  S
C402        H407   1.084       .  S
N403        H423   1.045       .  S
N403        H424   1.046       .  S
C405        C408   1.404   1_554  A
C405        C412   1.407       .  A
N406        H421   1.046       .  S
N406        H422   1.045       .  S
C408        C409   1.399       .  A
C408        H413   1.084       .  S
C409        C410   1.418       .  A
C409        N414   1.433       .  S
C410        C411   1.408       .  A
C411        C412   1.404   1_556  A
C411        H415   1.083       .  S
C412        N416   1.437       .  S
N414        H417   1.042       .  S
N414        H418   1.049       .  S
N416        H419   1.046       .  S
N416        H420   1.046       .  S
C425        C426   1.411       .  A
C425        C430   1.402       .  A
C426        C427   1.406       .  A
C426        N431   1.437       .  S
C427        C428   1.400       .  A
C427        H432   1.084       .  S
C428        C433   1.475       .  S
C428        C429   1.409       .  A
C429        C430   1.403       .  A
C429        N434   1.438       .  S
C430        H435   1.084       .  S
N431        H451   1.045       .  S
N431        H452   1.046       .  S
C433        C436   1.397       .  A
C433        C440   1.408       .  A
N434        H449   1.046       .  S
N434        H450   1.045       .  S
C436        C437   1.406       .  A
C436        H441   1.084       .  S
C437        C438   1.421       .  A
C437        N442   1.438       .  S
C438        C439   1.406       .  A
C439        C440   1.403       .  A
C439        H443   1.083       .  S
C440        N444   1.438       .  S
N442        H445   1.046       .  S
N442        H446   1.046       .  S
N444        H447   1.046       .  S
N444        H448   1.045       .  S
C453        C454   1.412       .  A
C453        C458   1.405       .  A
C454        C455   1.412   1_554  A
C454        N459   1.438   1_554  S
C455        C456   1.406   1_556  A
C455        H460   1.084       .  S
C456        C461   1.490   1_554  S
C456        C457   1.409       .  A
C457        C458   1.406       .  A
C457        N462   1.438       .  S
C458        H463   1.084       .  S
N459        H479   1.045   1_556  S
N459        H480   1.046       .  S
C461        C464   1.401   1_556  A
C461        C468   1.412       .  A
N462        H477   1.045       .  S
N462        H478   1.046       .  S
C464        C465   1.404   1_554  A
C464        H469   1.084       .  S
C465        C466   1.414       .  A
C465        N470   1.439   1_566  S
C466        C467   1.404       .  A
C467        C468   1.413       .  A
C467        H471   1.084       .  S
C468        N472   1.437       .  S
N470        H473   1.046   1_545  S
N470        H474   1.046       .  S
N472        H475   1.045       .  S
N472        H476   1.046       .  S
C481        C482   1.416       .  A
C481        C486   1.405       .  A
C482        C483   1.403       .  A
C482        N487   1.438       .  S
C483        C484   1.400       .  A
C483        H488   1.084       .  S
C484        C489   1.477       .  S
C484        C485   1.408       .  A
C485        C486   1.404       .  A
C485        N490   1.438   1_545  S
C486        H491   1.084   1_554  S
N487        H507   1.046       .  S
N487        H508   1.046       .  S
C489        C492   1.399       .  A
C489        C496   1.409       .  A
N490        H505   1.045       .  S
N490        H506   1.046       .  S
C492        C493   1.402       .  A
C492        H497   1.084       .  S
C493        C494   1.415       .  A
C493        N498   1.439   1_545  S
C494        C495   1.406       .  A
C495        C496   1.405       .  A
C495        H499   1.084       .  S
C496        N500   1.438       .  S
N498        H501   1.046       .  S
N498        H502   1.046       .  S
N500        H503   1.046       .  S
N500        H504   1.046       .  S
C509        C510   1.411       .  A
C509        C514   1.406       .  A
C510        C511   1.398       .  A
C510        N515   1.433       .  S
C511        C512   1.401       .  A
C511        H516   1.084       .  S
C512        C517   1.487       .  S
C512        C513   1.413       .  A
C513        C514   1.413       .  A
C513        N518   1.437       .  S
C514        H519   1.083       .  S
N515        H535   1.046       .  S
N515        H536   1.046       .  S
C517        C520   1.401       .  A
C517        C524   1.411       .  A
N518        H533   1.046       .  S
N518        H534   1.046       .  S
C520        C521   1.408       .  A
C520        H525   1.084       .  S
C521        C522   1.418       .  A
C521        N526   1.432       .  S
C522        C523   1.406       .  A
C523        C524   1.405       .  A
C523        H527   1.083       .  S
C524        N528   1.438       .  S
N526        H529   1.045       .  S
N526        H530   1.046       .  S
N528        H531   1.046       .  S
N528        H532   1.046       .  S
C537        C538   1.409       .  A
C537        C542   1.404       .  A
C538        C539   1.400       .  A
C538        N543   1.433       .  S
C539        C540   1.401       .  A
C539        H544   1.084       .  S
C540        C545   1.476       .  S
C540        C541   1.409       .  A
C541        C542   1.404       .  A
C541        N546   1.438       .  S
C542        H547   1.084       .  S
N543        H563   1.046       .  S
N543        H564   1.046       .  S
C545        C548   1.400       .  A
C545        C552   1.406       .  A
N546        H561   1.046       .  S
N546        H562   1.046       .  S
C548        C549   1.404       .  A
C548        H553   1.084       .  S
C549        C550   1.418       .  A
C549        N554   1.438       .  S
C550        C551   1.410       .  A
C551        C552   1.403       .  A
C551        H555   1.083       .  S
C552        N556   1.438       .  S
N554        H557   1.046       .  S
N554        H558   1.045   1_556  S
N556        H559   1.046       .  S
N556        H560   1.046       .  S
C565        C566   1.418       .  A
C565        C570   1.408       .  A
C566        C567   1.410       .  A
C566        N571   1.438       .  S
C567        C568   1.402       .  A
C567        H572   1.084       .  S
C568        C573   1.474       .  S
C568        C569   1.404       .  A
C569        C570   1.398       .  A
C569        N574   1.439       .  S
C570        H575   1.083       .  S
N571        H591   1.046       .  S
N571        H592   1.046       .  S
C573        C576   1.398       .  A
C573        C580   1.408       .  A
N574        H589   1.045       .  S
N574        H590   1.045       .  S
C576        C577   1.401       .  A
C576        H581   1.084       .  S
C577        C578   1.416       .  A
C577        N582   1.439       .  S
C578        C579   1.407       .  A
C579        C580   1.407       .  A
C579        H583   1.083       .  S
C580        N584   1.438       .  S
N582        H585   1.046       .  S
N582        H586   1.046       .  S
N584        H587   1.046       .  S
N584        H588   1.045       .  S
C593        C594   1.416       .  A
C593        C598   1.408       .  A
C594        C595   1.412       .  A
C594        N599   1.437       .  S
C595        C596   1.404       .  A
C595        H600   1.083       .  S
C596        C601   1.487       .  S
C596        C597   1.408       .  A
C597        C598   1.401       .  A
C597        N602   1.439       .  S
C598        H603   1.083       .  S
N599        H619   1.046       .  S
N599        H620   1.046       .  S
C601        C604   1.401       .  A
C601        C608   1.411       .  A
N602        H617   1.046       .  S
N602        H618   1.046       .  S
C604        C605   1.402       .  A
C604        H609   1.084       .  S
C605        C606   1.415       .  A
C605        N610   1.439       .  S
C606        C607   1.407       .  A
C607        C608   1.410       .  A
C607        H611   1.084       .  S
C608        N612   1.437       .  S
N610        H613   1.046       .  S
N610        H614   1.046       .  S
N612        H615   1.046       .  S
N612        H616   1.046       .  S
C621        C622   1.417       .  A
C621        C626   1.407       .  A
C622        C623   1.395       .  A
C622        N627   1.434       .  S
C623        C624   1.394       .  A
C623        H628   1.085       .  S
C624        C629   1.481       .  S
C624        C625   1.413       .  A
C625        C626   1.415       .  A
C625        N630   1.437       .  S
C626        H631   1.083       .  S
N627        H647   1.046       .  S
N627        H648   1.046       .  S
C629        C632   1.404       .  A
C629        C636   1.408       .  A
N630        H645   1.046       .  S
N630        H646   1.044       .  S
C632        C633   1.410       .  A
C632        H637   1.084       .  S
C633        C634   1.414       .  A
C633        N638   1.438       .  S
C634        C635   1.407       .  A
C635        C636   1.404       .  A
C635        H639   1.084       .  S
C636        N640   1.439       .  S
N638        H641   1.046       .  S
N638        H642   1.046       .  S
N640        H643   1.046       .  S
N640        H644   1.044       .  S
C649        C650   1.410       .  A
C649        C654   1.403       .  A
C650        C651   1.401       .  A
C650        N655   1.433       .  S
C651        C652   1.402       .  A
C651        H656   1.084       .  S
C652        C657   1.489       .  S
C652        C653   1.414       .  A
C653        C654   1.409       .  A
C653        N658   1.437       .  S
C654        H659   1.084       .  S
N655        H675   1.045       .  S
N655        H676   1.046       .  S
C657        C660   1.402       .  A
C657        C664   1.412       .  A
N658        H673   1.045       .  S
N658        H674   1.046   1_655  S
C660        C661   1.402       .  A
C660        H665   1.084       .  S
C661        C662   1.414       .  A
C661        N666   1.433       .  S
C662        C663   1.407       .  A
C663        C664   1.409       .  A
C663        H667   1.083   1_554  S
C664        N668   1.437       .  S
N666        H669   1.044       .  S
N666        H670   1.047       .  S
N668        H671   1.046       .  S
N668        H672   1.045   1_655  S
C677        C678   1.415       .  A
C677        C682   1.410       .  A
C678        C679   1.415       .  A
C678        N683   1.437       .  S
C679        C680   1.410       .  A
C679        H684   1.083       .  S
C680        C685   1.500       .  S
C680        C681   1.411       .  A
C681        C682   1.402       .  A
C681        N686   1.439       .  S
C682        H687   1.083       .  S
N683        H703   1.046       .  S
N683        H704   1.045       .  S
C685        C688   1.408       .  A
C685        C692   1.413       .  A
N686        H701   1.046       .  S
N686        H702   1.046       .  S
C688        C689   1.410       .  A
C688        H693   1.083       .  S
C689        C690   1.413       .  A
C689        N694   1.438       .  S
C690        C691   1.407       .  A
C691        C692   1.407       .  A
C691        H695   1.084       .  S
C692        N696   1.438       .  S
N694        H697   1.045       .  S
N694        H698   1.045       .  S
N696        H699   1.046       .  S
N696        H700   1.045       .  S
C705        C706   1.415       .  A
C705        C710   1.407       .  A
C706        C707   1.411       .  A
C706        N711   1.437       .  S
C707        C708   1.403       .  A
C707        H712   1.083       .  S
C708        C713   1.482       .  S
C708        C709   1.408       .  A
C709        C710   1.402       .  A
C709        N714   1.439       .  S
C710        H715   1.084       .  S
N711        H731   1.046       .  S
N711        H732   1.046       .  S
C713        C716   1.403       .  A
C713        C720   1.408       .  A
N714        H729   1.046       .  S
N714        H730   1.046       .  S
C716        C717   1.406       .  A
C716        H721   1.084       .  S
C717        C718   1.413       .  A
C717        N722   1.438       .  S
C718        C719   1.406       .  A
C719        C720   1.406       .  A
C719        H723   1.084       .  S
C720        N724   1.437       .  S
N722        H725   1.046       .  S
N722        H726   1.046       .  S
N724        H727   1.046       .  S
N724        H728   1.046       .  S
C733        C734   1.419       .  A
C733        C738   1.409       .  A
C734        C735   1.406       .  A
C734        N739   1.438       .  S
C735        C736   1.400       .  A
C735        H740   1.084       .  S
C736        C741   1.474       .  S
C736        C737   1.405       .  A
C737        C738   1.401       .  A
C737        N742   1.439       .  S
C738        H743   1.083       .  S
N739        H759   1.045   1_565  S
N739        H760   1.046   1_565  S
C741        C744   1.401       .  A
C741        C748   1.407       .  A
N742        H757   1.045       .  S
N742        H758   1.046       .  S
C744        C745   1.406       .  A
C744        H749   1.084       .  S
C745        C746   1.415       .  A
C745        N750   1.437       .  S
C746        C747   1.403       .  A
C747        C748   1.400       .  A
C747        H751   1.084       .  S
C748        N752   1.438       .  S
N750        H753   1.046       .  S
N750        H754   1.045       .  S
N752        H755   1.045   1_565  S
N752        H756   1.046       .  S
C761        C762   1.415       .  A
C761        C766   1.408       .  A
C762        C763   1.408       .  A
C762        N767   1.437   1_565  S
C763        C764   1.402       .  A
C763        H768   1.084   1_565  S
C764        C769   1.475   1_565  S
C764        C765   1.404       .  A
C765        C766   1.401       .  A
C765        N770   1.438       .  S
C766        H771   1.083       .  S
N767        H787   1.046       .  S
N767        H788   1.046       .  S
C769        C772   1.401   1_545  A
C769        C776   1.404       .  A
N770        H785   1.046       .  S
N770        H786   1.045       .  S
C772        C773   1.408       .  A
C772        H777   1.084       .  S
C773        C774   1.416   1_565  A
C773        N778   1.437       .  S
C774        C775   1.409       .  A
C775        C776   1.401       .  A
C775        H779   1.083       .  S
C776        N780   1.439       .  S
N778        H781   1.045       .  S
N778        H782   1.046       .  S
N780        H783   1.045       .  S
N780        H784   1.046       .  S
C789        C790   1.419       .  A
C789        C794   1.407       .  A
C790        C791   1.404       .  A
C790        N795   1.438       .  S
C791        C792   1.398       .  A
C791        H796   1.084       .  S
C792        C797   1.486       .  S
C792        C793   1.411       .  A
C793        C794   1.410       .  A
C793        N798   1.438       .  S
C794        H799   1.083       .  S
N795        H815   1.045       .  S
N795        H816   1.046       .  S
C797        C800   1.404       .  A
C797        C804   1.411       .  A
N798        H813   1.046       .  S
N798        H814   1.046       .  S
C800        C801   1.409       .  A
C800        H805   1.083       .  S
C801        C802   1.410       .  A
C801        N806   1.437       .  S
C802        C803   1.404       .  A
C803        C804   1.404       .  A
C803        H807   1.084       .  S
C804        N808   1.439       .  S
N806        H809   1.046       .  S
N806        H810   1.045       .  S
N808        H811   1.046       .  S
N808        H812   1.046       .  S
C817        C818   1.414       .  A
C817        C822   1.405       .  A
C818        C819   1.403       .  A
C818        N823   1.439       .  S
C819        C820   1.401       .  A
C819        H824   1.084       .  S
C820        C825   1.477       .  S
C820        C821   1.407       .  A
C821        C822   1.404       .  A
C821        N826   1.437   1_455  S
C822        H827   1.084       .  S
N823        H843   1.046       .  S
N823        H844   1.046       .  S
C825        C828   1.398       .  A
C825        C832   1.408   1_455  A
N826        H841   1.046       .  S
N826        H842   1.046       .  S
C828        C829   1.399       .  A
C828        H833   1.084       .  S
C829        C830   1.417       .  A
C829        N834   1.433       .  S
C830        C831   1.407   1_455  A
C831        C832   1.407       .  A
C831        H835   1.083       .  S
C832        N836   1.437       .  S
N834        H837   1.046       .  S
N834        H838   1.046       .  S
N836        H839   1.046       .  S
N836        H840   1.046       .  S
C845        C846   1.416   1_455  A
C845        C850   1.408       .  A
C846        C847   1.408       .  A
C846        N851   1.438       .  S
C847        C848   1.403       .  A
C847        H852   1.084       .  S
C848        C853   1.480       .  S
C848        C849   1.405   1_655  A
C849        C850   1.403       .  A
C849        N854   1.438       .  S
C850        H855   1.083       .  S
N851        H871   1.046   1_655  S
N851        H872   1.046       .  S
C853        C856   1.403   1_655  A
C853        C860   1.404       .  A
N854        H869   1.046       .  S
N854        H870   1.046       .  S
C856        C857   1.410       .  A
C856        H861   1.084       .  S
C857        C858   1.417   1_455  A
C857        N862   1.437       .  S
C858        C859   1.410       .  A
C859        C860   1.402       .  A
C859        H863   1.083       .  S
C860        N864   1.438       .  S
N862        H865   1.046       .  S
N862        H866   1.046       .  S
N864        H867   1.046       .  S
N864        H868   1.046       .  S
C873        C874   1.415       .  A
C873        C878   1.408       .  A
C874        C875   1.405       .  A
C874        N879   1.438       .  S
C875        C876   1.401       .  A
C875        H880   1.084       .  S
C876        C881   1.474       .  S
C876        C877   1.405       .  A
C877        C878   1.405       .  A
C877        N882   1.438       .  S
C878        H883   1.083       .  S
N879        H899   1.045       .  S
N879        H900   1.046       .  S
C881        C884   1.398       .  A
C881        C888   1.409       .  A
N882        H897   1.046       .  S
N882        H898   1.045       .  S
C884        C885   1.398       .  A
C884        H889   1.084       .  S
C885        C886   1.412       .  A
C885        N890   1.434       .  S
C886        C887   1.405       .  A
C887        C888   1.408       .  A
C887        H891   1.084       .  S
C888        N892   1.437       .  S
N890        H893   1.046       .  S
N890        H894   1.046       .  S
N892        H895   1.046       .  S
N892        H896   1.045       .  S
C901        C902   1.413       .  A
C901        C906   1.403       .  A
C902        C903   1.405       .  A
C902        N907   1.438       .  S
C903        C904   1.400       .  A
C903        H908   1.084       .  S
C904        C909   1.482       .  S
C904        C905   1.411       .  A
C905        C906   1.409       .  A
C905        N910   1.437       .  S
C906        H911   1.084       .  S
N907        H927   1.046       .  S
N907        H928   1.045       .  S
C909        C912   1.400       .  A
C909        C916   1.408       .  A
N910        H925   1.046       .  S
N910        H926   1.045       .  S
C912        C913   1.404       .  A
C912        H917   1.084       .  S
C913        C914   1.415       .  A
C913        N918   1.438   1_545  S
C914        C915   1.409       .  A
C915        C916   1.411       .  A
C915        H919   1.084       .  S
C916        N920   1.437       .  S
N918        H921   1.046       .  S
N918        H922   1.046       .  S
N920        H923   1.046       .  S
N920        H924   1.046       .  S
C929        C930   1.417       .  A
C929        C934   1.406       .  A
C930        C931   1.408       .  A
C930        N935   1.439       .  S
C931        C932   1.402       .  A
C931        H936   1.084       .  S
C932        C937   1.484       .  S
C932        C933   1.407       .  A
C933        C934   1.407       .  A
C933        N938   1.437       .  S
C934        H939   1.084       .  S
N935        H955   1.046       .  S
N935        H956   1.046       .  S
C937        C940   1.401       .  A
C937        C944   1.411       .  A
N938        H953   1.046       .  S
N938        H954   1.046       .  S
C940        C941   1.406       .  A
C940        H945   1.084       .  S
C941        C942   1.411       .  A
C941        N946   1.438       .  S
C942        C943   1.404       .  A
C943        C944   1.409       .  A
C943        H947   1.084   1_565  S
C944        N948   1.437       .  S
N946        H949   1.045       .  S
N946        H950   1.046       .  S
N948        H951   1.046       .  S
N948        H952   1.046       .  S
C957        C958   1.416       .  A
C957        C962   1.402       .  A
C958        C959   1.404       .  A
C958        N963   1.438       .  S
C959        C960   1.399       .  A
C959        H964   1.084       .  S
C960        C965   1.479       .  S
C960        C961   1.411       .  A
C961        C962   1.406       .  A
C961        N966   1.437       .  S
C962        H967   1.084       .  S
N963        H983   1.046       .  S
N963        H984   1.046       .  S
C965        C968   1.402       .  A
C965        C972   1.409       .  A
N966        H981   1.046       .  S
N966        H982   1.046       .  S
C968        C969   1.408       .  A
C968        H973   1.084       .  S
C969        C970   1.410       .  A
C969        N974   1.437       .  S
C970        C971   1.403       .  A
C971        C972   1.404       .  A
C971        H975   1.084       .  S
C972        N976   1.438       .  S
N974        H977   1.046       .  S
N974        H978   1.045       .  S
N976        H979   1.046       .  S
N976        H980   1.046       .  S
C985        C986   1.413       .  A
C985        C990   1.403       .  A
C986        C987   1.409       .  A
C986        N991   1.437       .  S
C987        C988   1.403       .  A
C987        H992   1.084       .  S
C988        C993   1.474       .  S
C988        C989   1.406       .  A
C989        C990   1.397       .  A
C989        N994   1.438       .  S
C990        H995   1.084       .  S
N991       H1011   1.046       .  S
N991       H1012   1.046       .  S
C993        C996   1.401       .  A
C993       C1000   1.404       .  A
N994       H1009   1.046       .  S
N994       H1010   1.046       .  S
C996        C997   1.401       .  A
C996       H1001   1.084       .  S
C997        C998   1.413       .  A
C997       N1002   1.432       .  S
C998        C999   1.411       .  A
C999       C1000   1.405       .  A
C999       H1003   1.083       .  S
C1000      N1004   1.438       .  S
N1002      H1005   1.046       .  S
N1002      H1006   1.046       .  S
N1004      H1007   1.045       .  S
N1004      H1008   1.046       .  S
C1013      C1014   1.411       .  A
C1013      C1018   1.402       .  A
C1014      C1015   1.412       .  A
C1014      N1019   1.437       .  S
C1015      C1016   1.405       .  A
C1015      H1020   1.083       .  S
C1016      C1021   1.485       .  S
C1016      C1017   1.409       .  A
C1017      C1018   1.402       .  A
C1017      N1022   1.438       .  S
C1018      H1023   1.084       .  S
N1019      H1039   1.045       .  S
N1019      H1040   1.046       .  S
C1021      C1024   1.402       .  A
C1021      C1028   1.407       .  A
N1022      H1037   1.045       .  S
N1022      H1038   1.046       .  S
C1024      C1025   1.405       .  A
C1024      H1029   1.084       .  S
C1025      C1026   1.416       .  A
C1025      N1030   1.438       .  S
C1026      C1027   1.410       .  A
C1027      C1028   1.409       .  A
C1027      H1031   1.084       .  S
C1028      N1032   1.437       .  S
N1030      H1033   1.045       .  S
N1030      H1034   1.046       .  S
N1032      H1035   1.046       .  S
N1032      H1036   1.046       .  S
C1041      C1042   1.414       .  A
C1041      C1046   1.405       .  A
C1042      C1043   1.407       .  A
C1042      N1047   1.438   1_455  S
C1043      C1044   1.403       .  A
C1043      H1048   1.084       .  S
C1044      C1049   1.479       .  S
C1044      C1045   1.407       .  A
C1045      C1046   1.403       .  A
C1045      N1050   1.437       .  S
C1046      H1051   1.083       .  S
N1047      H1067   1.046       .  S
N1047      H1068   1.046       .  S
C1049      C1052   1.401       .  A
C1049      C1056   1.410       .  A
N1050      H1065   1.045       .  S
N1050      H1066   1.046       .  S
C1052      C1053   1.401       .  A
C1052      H1057   1.084       .  S
C1053      C1054   1.410       .  A
C1053      N1058   1.439       .  S
C1054      C1055   1.403       .  A
C1055      C1056   1.408       .  A
C1055      H1059   1.084       .  S
C1056      N1060   1.437       .  S
N1058      H1061   1.046       .  S
N1058      H1062   1.045       .  S
N1060      H1063   1.046       .  S
N1060      H1064   1.046       .  S
C1069      C1070   1.408       .  A
C1069      C1074   1.402       .  A
C1070      C1071   1.400       .  A
C1070      N1075   1.438       .  S
C1071      C1072   1.401       .  A
C1071      H1076   1.084       .  S
C1072      C1077   1.473       .  S
C1072      C1073   1.408       .  A
C1073      C1074   1.405       .  A
C1073      N1078   1.437       .  S
C1074      H1079   1.084       .  S
N1075      H1095   1.046       .  S
N1075      H1096   1.046       .  S
C1077      C1080   1.403       .  A
C1077      C1084   1.404       .  A
N1078      H1093   1.046       .  S
N1078      H1094   1.046       .  S
C1080      C1081   1.406       .  A
C1080      H1085   1.084       .  S
C1081      C1082   1.412       .  A
C1081      N1086   1.437   1_655  S
C1082      C1083   1.408       .  A
C1083      C1084   1.399       .  A
C1083      H1087   1.083       .  S
C1084      N1088   1.438       .  S
N1086      H1089   1.046       .  S
N1086      H1090   1.046       .  S
N1088      H1091   1.046       .  S
N1088      H1092   1.045       .  S
C1097      C1098   1.417       .  A
C1097      C1102   1.403       .  A
C1098      C1099   1.403       .  A
C1098      N1103   1.433       .  S
C1099      C1100   1.403       .  A
C1099      H1104   1.084       .  S
C1100      C1105   1.494       .  S
C1100      C1101   1.416       .  A
C1101      C1102   1.409       .  A
C1101      N1106   1.438       .  S
C1102      H1107   1.084       .  S
N1103      H1123   1.044       .  S
N1103      H1124   1.046       .  S
C1105      C1108   1.400       .  A
C1105      C1112   1.417       .  A
N1106      H1121   1.045       .  S
N1106      H1122   1.046       .  S
C1108      C1109   1.399       .  A
C1108      H1113   1.084       .  S
C1109      C1110   1.413       .  A
C1109      N1114   1.433       .  S
C1110      C1111   1.405       .  A
C1111      C1112   1.415       .  A
C1111      H1115   1.084       .  S
C1112      N1116   1.437       .  S
N1114      H1117   1.045       .  S
N1114      H1118   1.046       .  S
N1116      H1119   1.046       .  S
N1116      H1120   1.045       .  S
C1125      C1126   1.415       .  A
C1125      C1130   1.406       .  A
C1126      C1127   1.409       .  A
C1126      N1131   1.438       .  S
C1127      C1128   1.402       .  A
C1127      H1132   1.084       .  S
C1128      C1133   1.480       .  S
C1128      C1129   1.407       .  A
C1129      C1130   1.402       .  A
C1129      N1134   1.438       .  S
C1130      H1135   1.083       .  S
N1131      H1151   1.046       .  S
N1131      H1152   1.046       .  S
C1133      C1136   1.401       .  A
C1133      C1140   1.406       .  A
N1134      H1149   1.046       .  S
N1134      H1150   1.046       .  S
C1136      C1137   1.409       .  A
C1136      H1141   1.084       .  S
C1137      C1138   1.419       .  A
C1137      N1142   1.438       .  S
C1138      C1139   1.409       .  A
C1139      C1140   1.403       .  A
C1139      H1143   1.083       .  S
C1140      N1144   1.438       .  S
N1142      H1145   1.046       .  S
N1142      H1146   1.046       .  S
N1144      H1147   1.045       .  S
N1144      H1148   1.046       .  S
C1153      C1154   1.414       .  A
C1153      C1158   1.408       .  A
C1154      C1155   1.411       .  A
C1154      N1159   1.437       .  S
C1155      C1156   1.406       .  A
C1155      H1160   1.084       .  S
C1156      C1161   1.485       .  S
C1156      C1157   1.407       .  A
C1157      C1158   1.401       .  A
C1157      N1162   1.439       .  S
C1158      H1163   1.084       .  S
N1159      H1179   1.045       .  S
N1159      H1180   1.046       .  S
C1161      C1164   1.405       .  A
C1161      C1168   1.412       .  A
N1162      H1177   1.045       .  S
N1162      H1178   1.046       .  S
C1164      C1165   1.406       .  A
C1164      H1169   1.084       .  S
C1165      C1166   1.408       .  A
C1165      N1170   1.438       .  S
C1166      C1167   1.403       .  A
C1167      C1168   1.406       .  A
C1167      H1171   1.084       .  S
C1168      N1172   1.439       .  S
N1170      H1173   1.045       .  S
N1170      H1174   1.046       .  S
N1172      H1175   1.046       .  S
N1172      H1176   1.046       .  S
C1181      C1182   1.418       .  A
C1181      C1186   1.407       .  A
C1182      C1183   1.402       .  A
C1182      N1187   1.439       .  S
C1183      C1184   1.399       .  A
C1183      H1188   1.084       .  S
C1184      C1189   1.482       .  S
C1184      C1185   1.410       .  A
C1185      C1186   1.408       .  A
C1185      N1190   1.437       .  S
C1186      H1191   1.084       .  S
N1187      H1207   1.046       .  S
N1187      H1208   1.046       .  S
C1189      C1192   1.399       .  A
C1189      C1196   1.413       .  A
N1190      H1205   1.046       .  S
N1190      H1206   1.045       .  S
C1192      C1193   1.400       .  A
C1192      H1197   1.084       .  S
C1193      C1194   1.415       .  A
C1193      N1198   1.439       .  S
C1194      C1195   1.401       .  A
C1195      C1196   1.409       .  A
C1195      H1199   1.084       .  S
C1196      N1200   1.437       .  S
N1198      H1201   1.044       .  S
N1198      H1202   1.047       .  S
N1200      H1203   1.046       .  S
N1200      H1204   1.045       .  S
C1209      C1210   1.412       .  A
C1209      C1214   1.404       .  A
C1210      C1211   1.408       .  A
C1210      N1215   1.438       .  S
C1211      C1212   1.403       .  A
C1211      H1216   1.084       .  S
C1212      C1217   1.481       .  S
C1212      C1213   1.408       .  A
C1213      C1214   1.405       .  A
C1213      N1218   1.438       .  S
C1214      H1219   1.084       .  S
N1215      H1235   1.044       .  S
N1215      H1236   1.046       .  S
C1217      C1220   1.400       .  A
C1217      C1224   1.411       .  A
N1218      H1233   1.046       .  S
N1218      H1234   1.044       .  S
C1220      C1221   1.408       .  A
C1220      H1225   1.084       .  S
C1221      C1222   1.414       .  A
C1221      N1226   1.438       .  S
C1222      C1223   1.403       .  A
C1223      C1224   1.406       .  A
C1223      H1227   1.084       .  S
C1224      N1228   1.439       .  S
N1226      H1229   1.046       .  S
N1226      H1230   1.046       .  S
N1228      H1231   1.046   1_655  S
N1228      H1232   1.045       .  S
C1237      C1238   1.413       .  A
C1237      C1242   1.406       .  A
C1238      C1239   1.412       .  A
C1238      N1243   1.437   1_455  S
C1239      C1240   1.408       .  A
C1239      H1244   1.083       .  S
C1240      C1245   1.493       .  S
C1240      C1241   1.410       .  A
C1241      C1242   1.402       .  A
C1241      N1246   1.439       .  S
C1242      H1247   1.084       .  S
N1243      H1263   1.045       .  S
N1243      H1264   1.046       .  S
C1245      C1248   1.407       .  A
C1245      C1252   1.412       .  A
N1246      H1261   1.045       .  S
N1246      H1262   1.046       .  S
C1248      C1249   1.408       .  A
C1248      H1253   1.084       .  S
C1249      C1250   1.411       .  A
C1249      N1254   1.438       .  S
C1250      C1251   1.404       .  A
C1251      C1252   1.407       .  A
C1251      H1255   1.084       .  S
C1252      N1256   1.438       .  S
N1254      H1257   1.046       .  S
N1254      H1258   1.045       .  S
N1256      H1259   1.045       .  S
N1256      H1260   1.046       .  S
C1265      C1266   1.412       .  A
C1265      C1270   1.403       .  A
C1266      C1267   1.399       .  A
C1266      N1271   1.438       .  S
C1267      C1268   1.398       .  A
C1267      H1272   1.084       .  S
C1268      C1273   1.459       .  S
C1268      C1269   1.404       .  A
C1269      C1270   1.396       .  A
C1269      N1274   1.438   1_655  S
C1270      H1275   1.084       .  S
N1271      H1291   1.045       .  S
N1271      H1292   1.046       .  S
C1273      C1276   1.397       .  A
C1273      C1280   1.403       .  A
N1274      H1289   1.046       .  S
N1274      H1290   1.046   1_455  S
C1276      C1277   1.400       .  A
C1276      H1281   1.084       .  S
C1277      C1278   1.413       .  A
C1277      N1282   1.438       .  S
C1278      C1279   1.405       .  A
C1279      C1280   1.397       .  A
C1279      H1283   1.084       .  S
C1280      N1284   1.438       .  S
N1282      H1285   1.046       .  S
N1282      H1286   1.045   1_655  S
N1284      H1287   1.046       .  S
N1284      H1288   1.046       .  S
C1293      C1294   1.413       .  A
C1293      C1298   1.407       .  A
C1294      C1295   1.406       .  A
C1294      N1299   1.438       .  S
C1295      C1296   1.403       .  A
C1295      H1300   1.084       .  S
C1296      C1301   1.476       .  S
C1296      C1297   1.405       .  A
C1297      C1298   1.401       .  A
C1297      N1302   1.438       .  S
C1298      H1303   1.084       .  S
N1299      H1319   1.046       .  S
N1299      H1320   1.046       .  S
C1301      C1304   1.401       .  A
C1301      C1308   1.409       .  A
N1302      H1317   1.045       .  S
N1302      H1318   1.046       .  S
C1304      C1305   1.400       .  A
C1304      H1309   1.084       .  S
C1305      C1306   1.409       .  A
C1305      N1310   1.439       .  S
C1306      C1307   1.402       .  A
C1307      C1308   1.407       .  A
C1307      H1311   1.084       .  S
C1308      N1312   1.437       .  S
N1310      H1313   1.046       .  S
N1310      H1314   1.046       .  S
N1312      H1315   1.046       .  S
N1312      H1316   1.046       .  S
C1321      C1322   1.415       .  A
C1321      C1326   1.405       .  A
C1322      C1323   1.408       .  A
C1322      N1327   1.438       .  S
C1323      C1324   1.401       .  A
C1323      H1328   1.084       .  S
C1324      C1329   1.486       .  S
C1324      C1325   1.412       .  A
C1325      C1326   1.406       .  A
C1325      N1330   1.438       .  S
C1326      H1331   1.084       .  S
N1327      H1347   1.046       .  S
N1327      H1348   1.045       .  S
C1329      C1332   1.402       .  A
C1329      C1336   1.413       .  A
N1330      H1345   1.046       .  S
N1330      H1346   1.045       .  S
C1332      C1333   1.403       .  A
C1332      H1337   1.084       .  S
C1333      C1334   1.411       .  A
C1333      N1338   1.438       .  S
C1334      C1335   1.402       .  A
C1335      C1336   1.409       .  A
C1335      H1339   1.084   1_545  S
C1336      N1340   1.438       .  S
N1338      H1341   1.046       .  S
N1338      H1342   1.045       .  S
N1340      H1343   1.046       .  S
N1340      H1344   1.046       .  S
C1349      C1350   1.414       .  A
C1349      C1354   1.406       .  A
C1350      C1351   1.412       .  A
C1350      N1355   1.437       .  S
C1351      C1352   1.405       .  A
C1351      H1356   1.084       .  S
C1352      C1357   1.484       .  S
C1352      C1353   1.407       .  A
C1353      C1354   1.402       .  A
C1353      N1358   1.438       .  S
C1354      H1359   1.084       .  S
N1355      H1375   1.046       .  S
N1355      H1376   1.046       .  S
C1357      C1360   1.401       .  A
C1357      C1364   1.409       .  A
N1358      H1373   1.045       .  S
N1358      H1374   1.046       .  S
C1360      C1361   1.400       .  A
C1360      H1365   1.084       .  S
C1361      C1362   1.420       .  A
C1361      N1366   1.440       .  S
C1362      C1363   1.405       .  A
C1363      C1364   1.409       .  A
C1363      H1367   1.084       .  S
C1364      N1368   1.437       .  S
N1366      H1369   1.046       .  S
N1366      H1370   1.043       .  S
N1368      H1371   1.046       .  S
N1368      H1372   1.046       .  S
C1377      C1378   1.417       .  A
C1377      C1382   1.410       .  A
C1378      C1379   1.406       .  A
C1378      N1383   1.438       .  S
C1379      C1380   1.400       .  A
C1379      H1384   1.084       .  S
C1380      C1385   1.474       .  S
C1380      C1381   1.403       .  A
C1381      C1382   1.402       .  A
C1381      N1386   1.438       .  S
C1382      H1387   1.083       .  S
N1383      H1403   1.045       .  S
N1383      H1404   1.046       .  S
C1385      C1388   1.400       .  A
C1385      C1392   1.404       .  A
N1386      H1401   1.045       .  S
N1386      H1402   1.046       .  S
C1388      C1389   1.407       .  A
C1388      H1393   1.084       .  S
C1389      C1390   1.418       .  A
C1389      N1394   1.438       .  S
C1390      C1391   1.409       .  A
C1391      C1392   1.400       .  A
C1391      H1395   1.083       .  S
C1392      N1396   1.438       .  S
N1394      H1397   1.045       .  S
N1394      H1398   1.046       .  S
N1396      H1399   1.045       .  S
N1396      H1400   1.046       .  S
C1405      C1406   1.412       .  A
C1405      C1410   1.406       .  A
C1406      C1407   1.406       .  A
C1406      N1411   1.438   1_554  S
C1407      C1408   1.404       .  A
C1407      H1412   1.084       .  S
C1408      C1413   1.481       .  S
C1408      C1409   1.408       .  A
C1409      C1410   1.402       .  A
C1409      N1414   1.438       .  S
C1410      H1415   1.084       .  S
N1411      H1431   1.045       .  S
N1411      H1432   1.046       .  S
C1413      C1416   1.402       .  A
C1413      C1420   1.406       .  A
N1414      H1429   1.046       .  S
N1414      H1430   1.046       .  S
C1416      C1417   1.409       .  A
C1416      H1421   1.084       .  S
C1417      C1418   1.418       .  A
C1417      N1422   1.438       .  S
C1418      C1419   1.409       .  A
C1419      C1420   1.402       .  A
C1419      H1423   1.083       .  S
C1420      N1424   1.439       .  S
N1422      H1425   1.046       .  S
N1422      H1426   1.045       .  S
N1424      H1427   1.045       .  S
N1424      H1428   1.046       .  S
C1433      C1434   1.417       .  A
C1433      C1438   1.409       .  A
C1434      C1435   1.408       .  A
C1434      N1439   1.438       .  S
C1435      C1436   1.401   1_556  A
C1435      H1440   1.084       .  S
C1436      C1441   1.483       .  S
C1436      C1437   1.406       .  A
C1437      C1438   1.409   1_554  A
C1437      N1442   1.437       .  S
C1438      H1443   1.084       .  S
N1439      H1459   1.045       .  S
N1439      H1460   1.046       .  S
C1441      C1444   1.401       .  A
C1441      C1448   1.410       .  A
N1442      H1457   1.046       .  S
N1442      H1458   1.046       .  S
C1444      C1445   1.406       .  A
C1444      H1449   1.084       .  S
C1445      C1446   1.413       .  A
C1445      N1450   1.438       .  S
C1446      C1447   1.403       .  A
C1447      C1448   1.408       .  A
C1447      H1451   1.084   1_655  S
C1448      N1452   1.437   1_554  S
N1450      H1453   1.046       .  S
N1450      H1454   1.046       .  S
N1452      H1455   1.046       .  S
N1452      H1456   1.045       .  S
C1461      C1462   1.416       .  A
C1461      C1466   1.405       .  A
C1462      C1463   1.405       .  A
C1462      N1467   1.438       .  S
C1463      C1464   1.401       .  A
C1463      H1468   1.084       .  S
C1464      C1469   1.480       .  S
C1464      C1465   1.410       .  A
C1465      C1466   1.402       .  A
C1465      N1470   1.438       .  S
C1466      H1471   1.084       .  S
N1467      H1487   1.045   1_455  S
N1467      H1488   1.046       .  S
C1469      C1472   1.398       .  A
C1469      C1476   1.411       .  A
N1470      H1485   1.046       .  S
N1470      H1486   1.046       .  S
C1472      C1473   1.398       .  A
C1472      H1477   1.084       .  S
C1473      C1474   1.416       .  A
C1473      N1478   1.433       .  S
C1474      C1475   1.407       .  A
C1475      C1476   1.407       .  A
C1475      H1479   1.083       .  S
C1476      N1480   1.438   1_455  S
N1478      H1481   1.044       .  S
N1478      H1482   1.047       .  S
N1480      H1483   1.046       .  S
N1480      H1484   1.046       .  S
C1489      C1490   1.407       .  A
C1489      C1494   1.402       .  A
C1490      C1491   1.406       .  A
C1490      N1495   1.438   1_455  S
C1491      C1492   1.405       .  A
C1491      H1496   1.084       .  S
C1492      C1497   1.487       .  S
C1492      C1493   1.411       .  A
C1493      C1494   1.408       .  A
C1493      N1498   1.437       .  S
C1494      H1499   1.084       .  S
N1495      H1515   1.046       .  S
N1495      H1516   1.046       .  S
C1497      C1500   1.401       .  A
C1497      C1504   1.413       .  A
N1498      H1513   1.046       .  S
N1498      H1514   1.045       .  S
C1500      C1501   1.406       .  A
C1500      H1505   1.084       .  S
C1501      C1502   1.414       .  A
C1501      N1506   1.438       .  S
C1502      C1503   1.402       .  A
C1503      C1504   1.409       .  A
C1503      H1507   1.084       .  S
C1504      N1508   1.437       .  S
N1506      H1509   1.045       .  S
N1506      H1510   1.046       .  S
N1508      H1511   1.046       .  S
N1508      H1512   1.046       .  S
C1517      C1518   1.417       .  A
C1517      C1522   1.405       .  A
C1518      C1519   1.406   1_455  A
C1518      N1523   1.438   1_455  S
C1519      C1520   1.399       .  A
C1519      H1524   1.084       .  S
C1520      C1525   1.470       .  S
C1520      C1521   1.405   1_655  A
C1521      C1522   1.399       .  A
C1521      N1526   1.438       .  S
C1522      H1527   1.084       .  S
N1523      H1543   1.045       .  S
N1523      H1544   1.046       .  S
C1525      C1528   1.399       .  A
C1525      C1532   1.408       .  A
N1526      H1541   1.045       .  S
N1526      H1542   1.046       .  S
C1528      C1529   1.396       .  A
C1528      H1533   1.084       .  S
C1529      C1530   1.407       .  A
C1529      N1534   1.433       .  S
C1530      C1531   1.404       .  A
C1531      C1532   1.406       .  A
C1531      H1535   1.084       .  S
C1532      N1536   1.437   1_655  S
N1534      H1537   1.046       .  S
N1534      H1538   1.045       .  S
N1536      H1539   1.046       .  S
N1536      H1540   1.046       .  S
C1545      C1546   1.409       .  A
C1545      C1550   1.403       .  A
C1546      C1547   1.408       .  A
C1546      N1551   1.438       .  S
C1547      C1548   1.408       .  A
C1547      H1552   1.083       .  S
C1548      C1553   1.492       .  S
C1548      C1549   1.412       .  A
C1549      C1550   1.404       .  A
C1549      N1554   1.438       .  S
C1550      H1555   1.084       .  S
N1551      H1571   1.046       .  S
N1551      H1572   1.045       .  S
C1553      C1556   1.406       .  A
C1553      C1560   1.411       .  A
N1554      H1569   1.046       .  S
N1554      H1570   1.045       .  S
C1556      C1557   1.407       .  A
C1556      H1561   1.083       .  S
C1557      C1558   1.413       .  A
C1557      N1562   1.438       .  S
C1558      C1559   1.407       .  A
C1559      C1560   1.406       .  A
C1559      H1563   1.084       .  S
C1560      N1564   1.438       .  S
N1562      H1565   1.046       .  S
N1562      H1566   1.045       .  S
N1564      H1567   1.046       .  S
N1564      H1568   1.045       .  S
C1573      C1574   1.418       .  A
C1573      C1578   1.411       .  A
C1574      C1575   1.410   1_554  A
C1574      N1579   1.437   1_554  S
C1575      C1576   1.403   1_556  A
C1575      H1580   1.084       .  S
C1576      C1581   1.491   1_554  S
C1576      C1577   1.408       .  A
C1577      C1578   1.407       .  A
C1577      N1582   1.438       .  S
C1578      H1583   1.083       .  S
N1579      H1599   1.045       .  S
N1579      H1600   1.046       .  S
C1581      C1584   1.403   1_556  A
C1581      C1588   1.413       .  A
N1582      H1597   1.045       .  S
N1582      H1598   1.046       .  S
C1584      C1585   1.404   1_554  A
C1584      H1589   1.084       .  S
C1585      C1586   1.413       .  A
C1585      N1590   1.439   1_556  S
C1586      C1587   1.403       .  A
C1587      C1588   1.411       .  A
C1587      H1591   1.084       .  S
C1588      N1592   1.437       .  S
N1590      H1593   1.045       .  S
N1590      H1594   1.046       .  S
N1592      H1595   1.046       .  S
N1592      H1596   1.045       .  S
C1601      C1602   1.410       .  A
C1601      C1606   1.405       .  A
C1602      C1603   1.408       .  A
C1602      N1607   1.437       .  S
C1603      C1604   1.402       .  A
C1603      H1608   1.084       .  S
C1604      C1609   1.478       .  S
C1604      C1605   1.407       .  A
C1605      C1606   1.403       .  A
C1605      N1610   1.438       .  S
C1606      H1611   1.084       .  S
N1607      H1627   1.045       .  S
N1607      H1628   1.046       .  S
C1609      C1612   1.400       .  A
C1609      C1616   1.404       .  A
N1610      H1625   1.046       .  S
N1610      H1626   1.046       .  S
C1612      C1613   1.405       .  A
C1612      H1617   1.084       .  S
C1613      C1614   1.417       .  A
C1613      N1618   1.438       .  S
C1614      C1615   1.412       .  A
C1615      C1616   1.407       .  A
C1615      H1619   1.083       .  S
C1616      N1620   1.437       .  S
N1618      H1621   1.046       .  S
N1618      H1622   1.046       .  S
N1620      H1623   1.046       .  S
N1620      H1624   1.046       .  S
C1629      C1630   1.418       .  A
C1629      C1634   1.408       .  A
C1630      C1631   1.409       .  A
C1630      N1635   1.438   1_545  S
C1631      C1632   1.401       .  A
C1631      H1636   1.084       .  S
C1632      C1637   1.481       .  S
C1632      C1633   1.407       .  A
C1633      C1634   1.404       .  A
C1633      N1638   1.438       .  S
C1634      H1639   1.083       .  S
N1635      H1655   1.046   1_565  S
N1635      H1656   1.045       .  S
C1637      C1640   1.399       .  A
C1637      C1644   1.410       .  A
N1638      H1653   1.046       .  S
N1638      H1654   1.046       .  S
C1640      C1641   1.402       .  A
C1640      H1645   1.084       .  S
C1641      C1642   1.413       .  A
C1641      N1646   1.433       .  S
C1642      C1643   1.406       .  A
C1643      C1644   1.409       .  A
C1643      H1647   1.083   1_545  S
C1644      N1648   1.437   1_545  S
N1646      H1649   1.045       .  S
N1646      H1650   1.046       .  S
N1648      H1651   1.045       .  S
N1648      H1652   1.046       .  S
C1657      C1658   1.412       .  A
C1657      C1662   1.403       .  A
C1658      C1659   1.405       .  A
C1658      N1663   1.436       .  S
C1659      C1660   1.402       .  A
C1659      H1664   1.084       .  S
C1660      C1665   1.492       .  S
C1660      C1661   1.414       .  A
C1661      C1662   1.412       .  A
C1661      N1666   1.437       .  S
C1662      H1667   1.084       .  S
N1663      H1683   1.046       .  S
N1663      H1684   1.046       .  S
C1665      C1668   1.402       .  A
C1665      C1672   1.412       .  A
N1666      H1681   1.045       .  S
N1666      H1682   1.046       .  S
C1668      C1669   1.410       .  A
C1668      H1673   1.084       .  S
C1669      C1670   1.420       .  A
C1669      N1674   1.438       .  S
C1670      C1671   1.406       .  A
C1671      C1672   1.408       .  A
C1671      H1675   1.083       .  S
C1672      N1676   1.438       .  S
N1674      H1677   1.046       .  S
N1674      H1678   1.045       .  S
N1676      H1679   1.045       .  S
N1676      H1680   1.046       .  S
C1685      C1686   1.415       .  A
C1685      C1690   1.410       .  A
C1686      C1687   1.408       .  A
C1686      N1691   1.438   1_545  S
C1687      C1688   1.401       .  A
C1687      H1692   1.084       .  S
C1688      C1693   1.484       .  S
C1688      C1689   1.407       .  A
C1689      C1690   1.408       .  A
C1689      N1694   1.437       .  S
C1690      H1695   1.083       .  S
N1691      H1711   1.045       .  S
N1691      H1712   1.045       .  S
C1693      C1696   1.401       .  A
C1693      C1700   1.410       .  A
N1694      H1709   1.046       .  S
N1694      H1710   1.045       .  S
C1696      C1697   1.406       .  A
C1696      H1701   1.084       .  S
C1697      C1698   1.413       .  A
C1697      N1702   1.438       .  S
C1698      C1699   1.405       .  A
C1699      C1700   1.412       .  A
C1699      H1703   1.084       .  S
C1700      N1704   1.437       .  S
N1702      H1705   1.046       .  S
N1702      H1706   1.046       .  S
N1704      H1707   1.046       .  S
N1704      H1708   1.046       .  S
C1713      C1714   1.416       .  A
C1713      C1718   1.412       .  A
C1714      C1715   1.406       .  A
C1714      N1719   1.438   1_565  S
C1715      C1716   1.405       .  A
C1715      H1720   1.084       .  S
C1716      C1721   1.488       .  S
C1716      C1717   1.407       .  A
C1717      C1718   1.406       .  A
C1717      N1722   1.438       .  S
C1718      H1723   1.083       .  S
N1719      H1739   1.045       .  S
N1719      H1740   1.046       .  S
C1721      C1724   1.407       .  A
C1721      C1728   1.408       .  A
N1722      H1737   1.046       .  S
N1722      H1738   1.045       .  S
C1724      C1725   1.411       .  A
C1724      H1729   1.083       .  S
C1725      C1726   1.413       .  A
C1725      N1730   1.437       .  S
C1726      C1727   1.406       .  A
C1727      C1728   1.400       .  A
C1727      H1731   1.084       .  S
C1728      N1732   1.438       .  S
N1730      H1733   1.046       .  S
N1730      H1734   1.046       .  S
N1732      H1735   1.046       .  S
N1732      H1736   1.046       .  S
C1741      C1742   1.420       .  A
C1741      C1746   1.406       .  A
C1742      C1743   1.410       .  A
C1742      N1747   1.438       .  S
C1743      C1744   1.400       .  A
C1743      H1748   1.084       .  S
C1744      C1749   1.484       .  S
C1744      C1745   1.409       .  A
C1745      C1746   1.403       .  A
C1745      N1750   1.438       .  S
C1746      H1751   1.083       .  S
N1747      H1767   1.046       .  S
N1747      H1768   1.046       .  S
C1749      C1752   1.400       .  A
C1749      C1756   1.412       .  A
N1750      H1765   1.046   1_565  S
N1750      H1766   1.046       .  S
C1752      C1753   1.400       .  A
C1752      H1757   1.084       .  S
C1753      C1754   1.411       .  A
C1753      N1758   1.439       .  S
C1754      C1755   1.405       .  A
C1755      C1756   1.413       .  A
C1755      H1759   1.084       .  S
C1756      N1760   1.437       .  S
N1758      H1761   1.046       .  S
N1758      H1762   1.046       .  S
N1760      H1763   1.046       .  S
N1760      H1764   1.046       .  S
C1769      C1770   1.410       .  A
C1769      C1774   1.403       .  A
C1770      C1771   1.404       .  A
C1770      N1775   1.438       .  S
C1771      C1772   1.405   1_565  A
C1771      H1776   1.084       .  S
C1772      C1777   1.487       .  S
C1772      C1773   1.411       .  A
C1773      C1774   1.406   1_545  A
C1773      N1778   1.437       .  S
C1774      H1779   1.084       .  S
N1775      H1795   1.046       .  S
N1775      H1796   1.045       .  S
C1777      C1780   1.406   1_545  A
C1777      C1784   1.409       .  A
N1778      H1793   1.046       .  S
N1778      H1794   1.046       .  S
C1780      C1781   1.408   1_565  A
C1780      H1785   1.083       .  S
C1781      C1782   1.412       .  A
C1781      N1786   1.437   1_545  S
C1782      C1783   1.406       .  A
C1783      C1784   1.402       .  A
C1783      H1787   1.084       .  S
C1784      N1788   1.438       .  S
N1786      H1789   1.046       .  S
N1786      H1790   1.045       .  S
N1788      H1791   1.046       .  S
N1788      H1792   1.046       .  S
C1797      C1798   1.412       .  A
C1797      C1802   1.409       .  A
C1798      C1799   1.405   1_556  A
C1798      N1803   1.438       .  S
C1799      C1800   1.403       .  A
C1799      H1804   1.084       .  S
C1800      C1805   1.481       .  S
C1800      C1801   1.407   1_554  A
C1801      C1802   1.406       .  A
C1801      N1806   1.438       .  S
C1802      H1807   1.083       .  S
N1803      H1823   1.046   1_556  S
N1803      H1824   1.046   1_556  S
C1805      C1808   1.404       .  A
C1805      C1812   1.405       .  A
N1806      H1821   1.046       .  S
N1806      H1822   1.046       .  S
C1808      C1809   1.413       .  A
C1808      H1813   1.084       .  S
C1809      C1810   1.418       .  A
C1809      N1814   1.437       .  S
C1810      C1811   1.408       .  A
C1811      C1812   1.397       .  A
C1811      H1815   1.083       .  S
C1812      N1816   1.439   1_554  S
N1814      H1817   1.045       .  S
N1814      H1818   1.046   1_545  S
N1816      H1819   1.045       .  S
N1816      H1820   1.046       .  S
C1825      C1826   1.411       .  A
C1825      C1830   1.399       .  A
C1826      C1827   1.404       .  A
C1826      N1831   1.439       .  S
C1827      C1828   1.404       .  A
C1827      H1832   1.083       .  S
C1828      C1833   1.490       .  S
C1828      C1829   1.417       .  A
C1829      C1830   1.406       .  A
C1829      N1834   1.438       .  S
C1830      H1835   1.084       .  S
N1831      H1851   1.046       .  S
N1831      H1852   1.046       .  S
C1833      C1836   1.402       .  A
C1833      C1840   1.416       .  A
N1834      H1849   1.046       .  S
N1834      H1850   1.045       .  S
C1836      C1837   1.400       .  A
C1836      H1841   1.083       .  S
C1837      C1838   1.411       .  A
C1837      N1842   1.438       .  S
C1838      C1839   1.402       .  A
C1839      C1840   1.410       .  A
C1839      H1843   1.084       .  S
C1840      N1844   1.438       .  S
N1842      H1845   1.046   1_565  S
N1842      H1846   1.043       .  S
N1844      H1847   1.046       .  S
N1844      H1848   1.045       .  S
C1853      C1854   1.411       .  A
C1853      C1858   1.401       .  A
C1854      C1855   1.396       .  A
C1854      N1859   1.434   1_456  S
C1855      C1856   1.404       .  A
C1855      H1860   1.084   1_556  S
C1856      C1861   1.483       .  S
C1856      C1857   1.412       .  A
C1857      C1858   1.406       .  A
C1857      N1862   1.437       .  S
C1858      H1863   1.084       .  S
N1859      H1879   1.046   1_554  S
N1859      H1880   1.045   1_554  S
C1861      C1864   1.405       .  A
C1861      C1868   1.408   1_556  A
N1862      H1877   1.045       .  S
N1862      H1878   1.046       .  S
C1864      C1865   1.407   1_556  A
C1864      H1869   1.084       .  S
C1865      C1866   1.412       .  A
C1865      N1870   1.438       .  S
C1866      C1867   1.406       .  A
C1867      C1868   1.402       .  A
C1867      H1871   1.084       .  S
C1868      N1872   1.438       .  S
N1870      H1873   1.046   1_554  S
N1870      H1874   1.046   1_554  S
N1872      H1875   1.046       .  S
N1872      H1876   1.045       .  S
C1881      C1882   1.415       .  A
C1881      C1886   1.407       .  A
C1882      C1883   1.405       .  A
C1882      N1887   1.432       .  S
C1883      C1884   1.400       .  A
C1883      H1888   1.084       .  S
C1884      C1889   1.481       .  S
C1884      C1885   1.409       .  A
C1885      C1886   1.408       .  A
C1885      N1890   1.438       .  S
C1886      H1891   1.083       .  S
N1887      H1907   1.046       .  S
N1887      H1908   1.045       .  S
C1889      C1892   1.399       .  A
C1889      C1896   1.411       .  A
N1890      H1905   1.046       .  S
N1890      H1906   1.045       .  S
C1892      C1893   1.404       .  A
C1892      H1897   1.084       .  S
C1893      C1894   1.415       .  A
C1893      N1898   1.438       .  S
C1894      C1895   1.405       .  A
C1895      C1896   1.410       .  A
C1895      H1899   1.084       .  S
C1896      N1900   1.437       .  S
N1898      H1901   1.046       .  S
N1898      H1902   1.046       .  S
N1900      H1903   1.046       .  S
N1900      H1904   1.045       .  S
