geometry optimzed in LAMMPS
_audit_creation_date              2020-12-01 
_audit_creation_method            'lammps2cif' 
_symmetry_space_group_name_H-M    'P1' 
_symmetry_Int_Tables_number       1 
_symmetry_cell_setting            triclinic 
loop_ 
_symmetry_equiv_pos_as_xyz 
  x,y,z 
_cell_length_a                    34.15269349 
_cell_length_b                    33.99183611359583 
_cell_length_c                    27.475440047878376 
_cell_angle_alpha                 90.01141672238491 
_cell_angle_beta                  89.66134473030576 
_cell_angle_gamma                 89.61980662942788 
loop_ 
_atom_site_label 
_atom_site_type_symbol 
_atom_site_fract_x 
_atom_site_fract_y 
_atom_site_fract_z 
_atom_site_charge 
O1          O  0.24099274  0.80849017  0.26663883    -0.80100
O2          O  0.22759388  0.70445904  0.19980456    -0.74700
O3          O  0.18253426  0.74900308  0.26697682    -0.63300
O4          O  0.28633359  0.76200692  0.19978216    -0.71700
O5          O  0.31598134  0.73415062  0.26201265    -0.71300
O6          O  0.21155666  0.72064891  0.32947780    -0.62500
O7          O  0.25710740  0.67423678  0.26125672    -0.75000
O8          O  0.27035105  0.77934006  0.32896306    -0.73800
Cu9        Cu  0.23335163  0.75699945  0.23133664     1.04600
Cu10       Cu  0.26476106  0.72588740  0.29760807     1.04300
C11         C  0.25759806  0.81045838  0.30811176     0.92500
C12         C  0.24067575  0.67312735  0.21949061     0.91600
C13         C  0.18037665  0.73346025  0.30921405     0.83800
C14         C  0.31786799  0.75015447  0.21998024     0.90000
C15         C  0.53389502  0.76572206  0.10410616     0.79500
N16         N  0.53075757  0.76971837  0.05514793    -0.78900
C17         C  0.49496615  0.77080927  0.03378015     0.81900
N18         N  0.46228560  0.76732051  0.06175231    -0.78800
C19         C  0.46490230  0.76374324  0.11100483     0.82000
N20         N  0.50096838  0.76296915  0.13200037    -0.80500
C21         C  0.45425362  0.77651901  0.90853931     0.79500
N22         N  0.48786214  0.77461774  0.88186534    -0.78900
C23         C  0.52330848  0.77392217  0.90390524     0.81900
N24         N  0.52532855  0.77343307  0.95312025    -0.78800
C25         C  0.49216758  0.77437756  0.98045258     0.82000
N26         N  0.45669081  0.77647860  0.95806949    -0.80500
C27         C  0.03028122  0.72810107  0.41077997     0.79500
N28         N  0.02839179  0.72566939  0.46008397    -0.78900
C29         C  0.99315566  0.72499124  0.48338813     0.81900
N30         N  0.95960841  0.72682689  0.45689818    -0.78800
C31         C  0.96121878  0.72962802  0.40744013     0.82000
N32         N  0.99666076  0.73040521  0.38485241    -0.80500
C33         C  0.95578525  0.72664207  0.61096179     0.79500
N34         N  0.95692385  0.72438562  0.56142223    -0.78900
C35         C  0.99174611  0.72454012  0.53710671     0.81900
N36         N  0.02559464  0.72674864  0.56263793    -0.78800
C37         C  0.02486045  0.72894068  0.61194937     0.82000
N38         N  0.98994049  0.72928320  0.63598720    -0.80500
O39         O  0.27565301  0.78071139  0.82178952    -0.73700
O40         O  0.17294494  0.76408505  0.75488624    -0.74700
O41         O  0.21942696  0.71999360  0.82174856    -0.63300
O42         O  0.22999413  0.82496595  0.75393901    -0.71700
O43         O  0.26113440  0.79524162  0.69289017    -0.71300
O44         O  0.24989485  0.69096267  0.75979948    -0.62500
O45         O  0.20364499  0.73540368  0.69293005    -0.75000
O46         O  0.30697069  0.75102490  0.76091340    -0.73800
Cu47       Cu  0.22340885  0.77350319  0.79016816     1.04600
Cu48       Cu  0.25647831  0.74219558  0.72445473     1.04300
C49         C  0.30734882  0.76768629  0.80267859     0.92500
C50         C  0.17194182  0.74739418  0.71326560     0.91600
C51         C  0.23354364  0.68900420  0.80163845     0.83800
C52         C  0.24710274  0.82641400  0.71242569     0.90000
C53         C  0.47019709  0.22276178  0.09458045     0.79500
N54         N  0.47162207  0.21983437  0.04533598    -0.78900
C55         C  0.50628005  0.22065883  0.02108412     0.81900
N56         N  0.54024997  0.22365183  0.04664735    -0.78800
C57         C  0.53936628  0.22554467  0.09617666     0.82000
N58         N  0.50426206  0.22551638  0.11950319    -0.80500
C59         C  0.47322337  0.23249046  0.89328611     0.79500
N60         N  0.47254650  0.22702694  0.94237965    -0.78900
C61         C  0.50663599  0.22252073  0.96745522     0.81900
N62         N  0.54123384  0.22288658  0.94304340    -0.78800
C63         C  0.54246461  0.22868615  0.89416704     0.82000
N64         N  0.50825472  0.23385659  0.86964727    -0.80500
C65         C  0.22648908  0.46307978  0.09946779     0.79500
N66         N  0.22388502  0.46501983  0.05021856    -0.78900
C67         C  0.22213737  0.50051314  0.02744555     0.81900
N68         N  0.22326091  0.53409931  0.05431028    -0.78800
C69         C  0.22581174  0.53227272  0.10364042     0.82000
N70         N  0.22765200  0.49671584  0.12599641    -0.80500
C71         C  0.22633729  0.53919816  0.90133294     0.79500
N72         N  0.22826186  0.50525751  0.87518932    -0.78900
C73         C  0.22662599  0.46986054  0.89811406     0.81900
N74         N  0.22343307  0.46871277  0.94741421    -0.78800
C75         C  0.22207459  0.50243222  0.97388831     0.82000
N76         N  0.22351612  0.53769726  0.95067256    -0.80500
C77         C  0.97117804  0.27039089  0.39219070     0.79500
N78         N  0.97157290  0.27434421  0.44132263    -0.78900
C79         C  0.00602521  0.27558148  0.46578109     0.81900
N80         N  0.04032401  0.27294463  0.44077772    -0.78800
C81         C  0.04015101  0.26906159  0.39158164     0.82000
N82         N  0.00559129  0.26748518  0.36733679    -0.80500
C83         C  0.96913680  0.28099103  0.59193683     0.79500
N84         N  0.97081166  0.28031312  0.54272896    -0.78900
C85         C  0.00564319  0.27813209  0.51914056     0.81900
N86         N  0.03934194  0.27645185  0.54522819    -0.78800
C87         C  0.03828611  0.27801821  0.59480924     0.82000
N88         N  0.00291860  0.28029941  0.61792021    -0.80500
C89         C  0.27412317  0.96286935  0.40016516     0.79500
N90         N  0.27491062  0.99684067  0.37378550    -0.78900
C91         C  0.27738939  0.03232394  0.39670167     0.81900
N92         N  0.27900371  0.03336757  0.44610054    -0.78800
C93         C  0.27759717  0.99981720  0.47277739     0.82000
N94         N  0.27502269  0.96460429  0.44963425    -0.80500
C95         C  0.27032475  0.04018268  0.59790457     0.79500
N96         N  0.27493859  0.03776398  0.54885633    -0.78900
C97         C  0.27542945  0.00211855  0.52636653     0.81900
N98         N  0.27132390  0.96888057  0.55340142    -0.78800
C99         C  0.26620244  0.97097784  0.60252184     0.82000
N100        N  0.26548090  0.00685168  0.62446799    -0.80500
O101        O  0.23453841  0.29254847  0.81089561    -0.73700
O102        O  0.24827880  0.19055474  0.73920984    -0.74700
O103        O  0.29454021  0.23449931  0.80739511    -0.63300
O104        O  0.18915938  0.25002035  0.74296851    -0.71700
O105        O  0.21819122  0.27869576  0.68106947    -0.71300
O106        O  0.32337361  0.26601494  0.74679056    -0.62500
O107        O  0.27879266  0.22113170  0.67866822    -0.75000
O108        O  0.26208985  0.32419597  0.74898779    -0.73800
Cu109      Cu  0.24074697  0.24074278  0.77718148     1.04600
Cu110      Cu  0.27166577  0.27363628  0.71180927     1.04300
C111        C  0.24582032  0.32445223  0.79102894     0.92500
C112        C  0.26506373  0.18973423  0.69753945     0.91600
C113        C  0.32566913  0.24828035  0.78776646     0.83800
C114        C  0.18670204  0.26675283  0.70144378     0.90000
O115        O  0.18913106  0.23602674  0.24773374    -0.73700
O116        O  0.29281942  0.22599589  0.18031595    -0.74700
O117        O  0.25077324  0.17946817  0.24863578    -0.63300
O118        O  0.23175684  0.28285290  0.18016419    -0.71700
O119        O  0.25979450  0.31398488  0.24164531    -0.71300
O120        O  0.27955139  0.21139920  0.30906977    -0.62500
O121        O  0.32153470  0.25803733  0.24065619    -0.75000
O122        O  0.21768285  0.26713590  0.30892806    -0.73800
Cu123      Cu  0.24014134  0.22994196  0.21205441     1.04600
Cu124      Cu  0.27064328  0.26370577  0.27717348     1.04300
C125        C  0.18703834  0.25316704  0.28900919     0.92500
C126        C  0.32340698  0.24062587  0.19947671     0.91600
C127        C  0.26768596  0.17938716  0.29005211     0.83800
C128        C  0.24323512  0.31473378  0.20012290     0.90000
O129        O  0.75798359  0.18144225  0.25974776    -0.73700
O130        O  0.77674542  0.28143175  0.18571261    -0.74700
O131        O  0.81891529  0.23814631  0.25613544    -0.63300
O132        O  0.71591013  0.22578540  0.18885774    -0.71700
O133        O  0.68571265  0.25608323  0.24916258    -0.71300
O134        O  0.79004494  0.27242020  0.31492992    -0.62500
O135        O  0.74529041  0.31463599  0.24374096    -0.75000
O136        O  0.73020609  0.21488993  0.32034953    -0.73800
Cu137      Cu  0.76837294  0.23050916  0.22070690     1.04600
Cu138      Cu  0.73677705  0.26580007  0.28412784     1.04300
C139        C  0.74167004  0.18236423  0.30172248     0.92500
C140        C  0.76337183  0.31372422  0.20286317     0.91600
C141        C  0.82098391  0.25720650  0.29608928     0.83800
C142        C  0.68417722  0.23858023  0.20803008     0.90000
C143        C  0.77929711  0.52867094  0.10067625     0.79500
N144        N  0.77818688  0.52982944  0.05125478    -0.78900
C145        C  0.77795096  0.49590748  0.02518922     0.81900
N146        N  0.77812679  0.46079967  0.04871199    -0.78800
C147        C  0.77916805  0.45940283  0.09794746     0.82000
N148        N  0.77969259  0.49335584  0.12392400    -0.80500
C149        C  0.76204778  0.53113390  0.89905799     0.79500
N150        N  0.76950127  0.53115306  0.94769967    -0.78900
C151        C  0.77391764  0.49663732  0.97214798     0.81900
N152        N  0.77180710  0.46212262  0.94768657    -0.78800
C153        C  0.76514931  0.46188141  0.89921508     0.82000
N154        N  0.75963540  0.49627622  0.87531046    -0.80500
C155        C  0.73166319  0.03205543  0.39916902     0.79500
N156        N  0.73218485  0.99818948  0.37283303    -0.78900
C157        C  0.73253645  0.96267983  0.39575668     0.81900
N158        N  0.73340131  0.96103841  0.44530677    -0.78800
C159        C  0.73317822  0.99490421  0.47168618     0.82000
N160        N  0.73192526  0.03000836  0.44835801    -0.80500
C161        C  0.74423944  0.03158279  0.59715834     0.79500
N162        N  0.74052708  0.02987159  0.54818992    -0.78900
C163        C  0.73679347  0.99489506  0.52500023     0.81900
N164        N  0.73677460  0.96103100  0.55130543    -0.78800
C165        C  0.74055280  0.96238785  0.60064577     0.82000
N166        N  0.74425986  0.99772902  0.62348138    -0.80500
O167        O  0.82240621  0.24818508  0.73349335    -0.73700
O168        O  0.72145669  0.22552982  0.80478283    -0.74700
O169        O  0.76759265  0.18548779  0.73367893    -0.63300
O170        O  0.77591742  0.28646759  0.80596267    -0.71700
O171        O  0.74417450  0.31755272  0.74721130    -0.71300
O172        O  0.73582527  0.21519581  0.67415626    -0.62500
O173        O  0.68904342  0.25610610  0.74601303    -0.75000
O174        O  0.78921387  0.27836901  0.67490158    -0.73800
Cu175      Cu  0.77306412  0.23532603  0.77137043     1.04600
Cu176      Cu  0.73833552  0.26779544  0.70850010     1.04300
C177        C  0.82154531  0.26666520  0.69291973     0.92500
C178        C  0.68934674  0.23855902  0.78711852     0.91600
C179        C  0.75106841  0.18399842  0.69223170     0.83800
C180        C  0.76085485  0.31785083  0.78876042     0.90000
O181        O  0.81902251  0.75491985  0.25116087    -0.73700
O182        O  0.71726054  0.76820709  0.17770030    -0.74700
O183        O  0.76033488  0.81459820  0.24565179    -0.63300
O184        O  0.77592525  0.70869022  0.18279419    -0.71700
O185        O  0.74688116  0.68031366  0.24520923    -0.71300
O186        O  0.72761626  0.78653334  0.30611190    -0.62500
O187        O  0.68626123  0.73820929  0.23819329    -0.75000
O188        O  0.78662821  0.72838962  0.31311221    -0.73800
Cu189      Cu  0.76924935  0.76257995  0.21215905     1.04600
Cu190      Cu  0.73564744  0.73239392  0.27762684     1.04300
C191        C  0.81859890  0.74026277  0.29408417     0.92500
C192        C  0.68570350  0.75469537  0.19637514     0.91600
C193        C  0.74210153  0.81725467  0.28628073     0.83800
C194        C  0.76424490  0.67744998  0.20404762     0.90000
O195        O  0.74834230  0.81404944  0.75289270    -0.73700
O196        O  0.75501564  0.70858876  0.81763586    -0.74700
O197        O  0.80416445  0.75172916  0.75294293    -0.63300
O198        O  0.69947101  0.77038803  0.81743740    -0.71700
O199        O  0.66984135  0.74385400  0.75385359    -0.71300
O200        O  0.77446091  0.72430889  0.68990154    -0.62500
O201        O  0.72495818  0.68132494  0.75476218    -0.75000
O202        O  0.71962070  0.78686460  0.68918748    -0.73800
Cu203      Cu  0.75273697  0.76214084  0.78744390     1.04600
Cu204      Cu  0.72112094  0.73314062  0.71977067     1.04300
C205        C  0.73382250  0.81704416  0.71029752     0.92500
C206        C  0.74081588  0.67841509  0.79662640     0.91600
C207        C  0.80571845  0.73561643  0.71091191     0.83800
C208        C  0.66820309  0.75948547  0.79612272     0.90000
C209        C  0.77998305  0.08150586  0.64680915    -0.02600
C210        C  0.74627483  0.07042983  0.62122023     0.07100
C211        C  0.71522197  0.09752103  0.61585082    -0.02700
C212        C  0.71756344  0.13538157  0.63644532    -0.02700
C213        C  0.75010058  0.14571989  0.66551554     0.07200
C214        C  0.78173823  0.11853592  0.66973655    -0.02900
Br215      Br  0.82929946  0.13201203  0.70385481    -0.01500
Br216      Br  0.82507298  0.04702097  0.64734163    -0.01500
Br217      Br  0.67558476  0.17215615  0.62365993    -0.01500
Br218      Br  0.66843276  0.08210362  0.58162420    -0.01500
C219        C  0.70163145  0.86910851  0.65880381    -0.02600
C220        C  0.73482348  0.85535022  0.68436795     0.07100
C221        C  0.76977587  0.87750914  0.68302564    -0.02700
C222        C  0.77166478  0.91237717  0.65543692    -0.02700
C223        C  0.73866331  0.92576082  0.62959595     0.07200
C224        C  0.70355916  0.90427751  0.63175966    -0.02900
Br225      Br  0.65756849  0.92395537  0.59896068    -0.01500
Br226      Br  0.65273862  0.84098081  0.66233538    -0.01500
Br227      Br  0.82034001  0.94057819  0.65083701    -0.01500
Br228      Br  0.81626424  0.85940468  0.71642192    -0.01500
C229        C  0.77026537  0.91440491  0.34528939    -0.02600
C230        C  0.73453049  0.92613020  0.36671336     0.07100
C231        C  0.70078756  0.90331659  0.35971010    -0.02700
C232        C  0.70289957  0.86830785  0.33220656    -0.02700
C233        C  0.73895209  0.85584095  0.31159888     0.07200
C234        C  0.77255072  0.87956312  0.31757472    -0.02900
Br235      Br  0.82252530  0.86403739  0.29000271    -0.01500
Br236      Br  0.81650835  0.94566846  0.35558115    -0.01500
Br237      Br  0.65576234  0.83875083  0.32065533    -0.01500
Br238      Br  0.65151448  0.92066276  0.38719791    -0.01500
C239        C  0.72970467  0.41444332  0.84685792    -0.02600
C240        C  0.76369385  0.42449786  0.87257170     0.07100
C241        C  0.79633276  0.39897409  0.87256982    -0.02700
C242        C  0.79556065  0.36399626  0.84533945    -0.02700
C243        C  0.76193675  0.35443127  0.81786877     0.07200
C244        C  0.72858047  0.37931653  0.82000899    -0.02900
Br245      Br  0.67981157  0.36419116  0.79009543    -0.01500
Br246      Br  0.68374371  0.44784613  0.85072391    -0.01500
Br247      Br  0.84139041  0.33022200  0.84576575    -0.01500
Br248      Br  0.84290395  0.41258471  0.90845925    -0.01500
C249        C  0.76992888  0.57311793  0.82390197    -0.02600
C250        C  0.75536402  0.56850815  0.87207623     0.07100
C251        C  0.73309024  0.59938005  0.89343271    -0.02700
C252        C  0.72780648  0.63510135  0.86831429    -0.02700
C253        C  0.74335949  0.63984894  0.82108074     0.07200
C254        C  0.76291360  0.60824911  0.79819489    -0.02900
Br255      Br  0.78098260  0.61328822  0.73166230    -0.01500
Br256      Br  0.80172140  0.53286490  0.79285013    -0.01500
Br257      Br  0.69706456  0.67688304  0.89759747    -0.01500
Br258      Br  0.70715454  0.59261432  0.95566019    -0.01500
C259        C  0.74640688  0.57142384  0.16275023    -0.02600
C260        C  0.77697288  0.56562033  0.12894165     0.07100
C261        C  0.80473192  0.59538461  0.12148520    -0.02700
C262        C  0.80066922  0.63190525  0.14542599    -0.02700
C263        C  0.77008946  0.63803180  0.18022060     0.07200
C264        C  0.74427758  0.60627066  0.19040411    -0.02900
Br265      Br  0.70560390  0.60829744  0.24211721    -0.01500
Br266      Br  0.70511215  0.53288606  0.16815419    -0.01500
Br267      Br  0.83866125  0.67209841  0.13016083    -0.01500
Br268      Br  0.84944298  0.58528321  0.07962539    -0.01500
C269        C  0.73914541  0.40256633  0.12558452    -0.02600
C270        C  0.77575749  0.42133710  0.12305654     0.07100
C271        C  0.80889054  0.40353128  0.14411876    -0.02700
C272        C  0.80510876  0.36775523  0.16952111    -0.02700
C273        C  0.76801480  0.35021134  0.17456105     0.07200
C274        C  0.73524169  0.36716250  0.15156455    -0.02900
Br275      Br  0.68542177  0.34078639  0.15363768    -0.01500
Br276      Br  0.69437662  0.42526406  0.09315131    -0.01500
Br277      Br  0.85064817  0.34271034  0.19718663    -0.01500
Br278      Br  0.85951317  0.42762790  0.13651201    -0.01500
C279        C  0.70904299  0.11747563  0.31389192    -0.02600
C280        C  0.73672284  0.14535979  0.32903550     0.07100
C281        C  0.76100765  0.13708161  0.36896567    -0.02700
C282        C  0.76029155  0.09964384  0.39078406    -0.02700
C283        C  0.73308829  0.07110077  0.37504093     0.07200
C284        C  0.70664595  0.08070970  0.33742141    -0.02900
Br285      Br  0.66551825  0.04478212  0.31990475    -0.01500
Br286      Br  0.67305845  0.13074991  0.26251276    -0.01500
Br287      Br  0.79882625  0.08722939  0.43985389    -0.01500
Br288      Br  0.79514509  0.17722720  0.39408733    -0.01500
C289        C  0.30308024  0.13237390  0.66379123    -0.02600
C290        C  0.26710419  0.15227085  0.67034261     0.07100
C291        C  0.23248171  0.13588643  0.65162704    -0.02700
C292        C  0.23347392  0.09884341  0.62873936    -0.02700
C293        C  0.26938883  0.07894089  0.62215555     0.07200
C294        C  0.30427981  0.09602342  0.63901979    -0.02900
Br295      Br  0.35357066  0.06934554  0.62835261    -0.01500
Br296      Br  0.35035459  0.15432387  0.69019546    -0.01500
Br297      Br  0.18553865  0.07492728  0.60716440    -0.01500
Br298      Br  0.18396546  0.16514658  0.65516254    -0.01500
C299        C  0.29597953  0.11158282  0.30049000    -0.02600
C300        C  0.27167721  0.14226479  0.31757237     0.07100
C301        C  0.25029018  0.13737138  0.36106914    -0.02700
C302        C  0.25056642  0.10089484  0.38526307    -0.02700
C303        C  0.27540913  0.06998268  0.36886707     0.07200
C304        C  0.29880228  0.07603519  0.32682334    -0.02900
Br305      Br  0.33695999  0.03734218  0.30665356    -0.01500
Br306      Br  0.32713141  0.11921519  0.24244858    -0.01500
Br307      Br  0.21418108  0.09320049  0.43856232    -0.01500
Br308      Br  0.22052946  0.18090322  0.38789210    -0.01500
C309        C  0.10761665  0.29988175  0.60997303    -0.02600
C310        C  0.07543271  0.27633313  0.62339991     0.07100
C311        C  0.07888894  0.25134812  0.66426255    -0.02700
C312        C  0.11404862  0.24969572  0.69124333    -0.02700
C313        C  0.14755966  0.27160050  0.67623617     0.07200
C314        C  0.14330871  0.29752215  0.63571045    -0.02900
Br315      Br  0.18490843  0.33236762  0.61512301    -0.01500
Br316      Br  0.10243853  0.33733801  0.55718886    -0.01500
Br317      Br  0.11419935  0.21682615  0.74887759    -0.01500
Br318      Br  0.03617359  0.21679274  0.68191714    -0.01500
C319        C  0.88263296  0.30464478  0.67476937    -0.02600
C320        C  0.85801636  0.27253934  0.66510527     0.07100
C321        C  0.86808674  0.24562607  0.62819283    -0.02700
C322        C  0.90459648  0.24813019  0.60467390    -0.02700
C323        C  0.93061432  0.27882755  0.61653958     0.07200
C324        C  0.91898028  0.30780685  0.65052794    -0.02900
Br325      Br  0.95165060  0.35300043  0.66155428    -0.01500
Br326      Br  0.86514598  0.34563554  0.71829800    -0.01500
Br327      Br  0.91907451  0.20812608  0.55776511    -0.01500
Br328      Br  0.83096931  0.20627939  0.60834043    -0.01500
C329        C  0.09069415  0.22763997  0.35023021    -0.02600
C330        C  0.07738987  0.26510285  0.36484179     0.07100
C331        C  0.09978039  0.29864635  0.35419820    -0.02700
C332        C  0.13566004  0.29471815  0.32920260    -0.02700
C333        C  0.14884886  0.25721675  0.31395347     0.07200
C334        C  0.12577436  0.22373096  0.32355412    -0.02900
Br335      Br  0.14218527  0.17223638  0.30136463    -0.01500
Br336      Br  0.06195111  0.18146770  0.36943193    -0.01500
Br337      Br  0.16566321  0.34108132  0.31363992    -0.01500
Br338      Br  0.08102467  0.34998952  0.37361527    -0.01500
C339        C  0.88501987  0.22800542  0.32371012    -0.02600
C340        C  0.85951790  0.26096571  0.32071920     0.07100
C341        C  0.87140511  0.29729044  0.34093606    -0.02700
C342        C  0.90811187  0.30040427  0.36391214    -0.02700
C343        C  0.93336644  0.26755117  0.36647897     0.07200
C344        C  0.92176281  0.23145611  0.34624681    -0.02900
Br345      Br  0.95559077  0.18599060  0.35140226    -0.01500
Br346      Br  0.86934778  0.17700326  0.29971619    -0.01500
Br347      Br  0.92456997  0.35009366  0.39075213    -0.01500
Br348      Br  0.83870252  0.34363560  0.33543203    -0.01500
C349        C  0.20665192  0.42436405  0.83028373    -0.02600
C350        C  0.23124328  0.43273742  0.87018105     0.07100
C351        C  0.26040660  0.40518031  0.88374947    -0.02700
C352        C  0.26489152  0.36977216  0.85777392    -0.02700
C353        C  0.24075684  0.36176488  0.81772719     0.07200
C354        C  0.21131332  0.38879489  0.80432534    -0.02900
Br355      Br  0.17602276  0.37580148  0.75215543    -0.01500
Br356      Br  0.16528199  0.46045350  0.81242298    -0.01500
Br357      Br  0.30445876  0.33208311  0.87684936    -0.01500
Br358      Br  0.29589833  0.41631985  0.93643740    -0.01500
C359        C  0.26737531  0.41308773  0.14220395    -0.02600
C360        C  0.23063707  0.42476060  0.12407250     0.07100
C361        C  0.19781225  0.40055990  0.13110656    -0.02700
C362        C  0.20167311  0.36462500  0.15630789    -0.02700
C363        C  0.23853088  0.35279205  0.17450358     0.07200
C364        C  0.27128803  0.37749172  0.16789514    -0.02900
Br365      Br  0.32201022  0.36256229  0.19301946    -0.01500
Br366      Br  0.31271393  0.44541048  0.13022666    -0.01500
Br367      Br  0.15584021  0.33323309  0.16891662    -0.01500
Br368      Br  0.14738935  0.41747976  0.10735794    -0.01500
C369        C  0.42756494  0.27110674  0.83923901    -0.02600
C370        C  0.43602333  0.23644705  0.86547885     0.07100
C371        C  0.40931627  0.20505094  0.86410617    -0.02700
C372        C  0.37379246  0.20864671  0.83826480    -0.02700
C373        C  0.36441085  0.24386505  0.81305062     0.07200
C374        C  0.39212328  0.27488468  0.81311230    -0.02900
Br375      Br  0.38172897  0.32368721  0.77932973    -0.01500
Br376      Br  0.46419140  0.31419051  0.84057650    -0.01500
Br377      Br  0.33947579  0.16376213  0.83533519    -0.01500
Br378      Br  0.42271647  0.15590373  0.89531119    -0.01500
C379        C  0.61389361  0.24824257  0.88881517    -0.02600
C380        C  0.58076523  0.22990226  0.86783003     0.07100
C381        C  0.58432231  0.21332815  0.82073646    -0.02700
C382        C  0.61911879  0.21780367  0.79371165    -0.02700
C383        C  0.65237866  0.23466779  0.81520308     0.07200
C384        C  0.64978825  0.24938718  0.86316279    -0.02900
Br385      Br  0.69473157  0.27401229  0.89269802    -0.01500
Br386      Br  0.61053728  0.27447470  0.95125525    -0.01500
Br387      Br  0.62066164  0.20087952  0.72685772    -0.01500
Br388      Br  0.54314501  0.18125889  0.79387103    -0.01500
C389        C  0.39337855  0.21878700  0.19568035    -0.02600
C390        C  0.36113414  0.23721227  0.17336268     0.07100
C391        C  0.36444115  0.25104732  0.12520391    -0.02700
C392        C  0.40004465  0.24700325  0.09956019    -0.02700
C393        C  0.43200789  0.22639189  0.12082273     0.07200
C394        C  0.42784762  0.21142746  0.16879428    -0.02900
Br395      Br  0.46752394  0.17797445  0.19753836    -0.01500
Br396      Br  0.39045644  0.20330793  0.26328940    -0.01500
Br397      Br  0.40443071  0.27261257  0.03678675    -0.01500
Br398      Br  0.32068935  0.27795652  0.09516791    -0.01500
C399        C  0.57910575  0.25662412  0.16281462    -0.02600
C400        C  0.57611773  0.22860845  0.12501405     0.07100
C401        C  0.60748659  0.20226273  0.11667681    -0.02700
C402        C  0.64214715  0.20479806  0.14427941    -0.02700
C403        C  0.64593360  0.23370027  0.18156343     0.07200
C404        C  0.61316454  0.25861134  0.19165212    -0.02900
Br405      Br  0.61310632  0.29619046  0.24471947    -0.01500
Br406      Br  0.53719874  0.29435568  0.17387079    -0.01500
Br407      Br  0.68283216  0.16608208  0.13138853    -0.01500
Br408      Br  0.60223288  0.16060775  0.06916524    -0.01500
C409        C  0.23494057  0.90469594  0.61504998    -0.02600
C410        C  0.26039036  0.93446677  0.63172171     0.07100
C411        C  0.28009597  0.92902070  0.67649559    -0.02700
C412        C  0.27393671  0.89464629  0.70424005    -0.02700
C413        C  0.25039202  0.86421412  0.68599498     0.07200
C414        C  0.23114529  0.86924852  0.64118309    -0.02900
Br415      Br  0.19868009  0.82771583  0.61594553    -0.01500
Br416      Br  0.20283856  0.91289942  0.55824704    -0.01500
Br417      Br  0.29879760  0.88866154  0.76672278    -0.01500
Br418      Br  0.31801261  0.96684324  0.69870957    -0.01500
C419        C  0.26579083  0.62717235  0.83218930    -0.02600
C420        C  0.23165048  0.65062259  0.82724872     0.07100
C421        C  0.19592443  0.63731157  0.84726065    -0.02700
C422        C  0.19455693  0.60140791  0.87282993    -0.02700
C423        C  0.22829811  0.57757832  0.87629973     0.07200
C424        C  0.26387207  0.59041977  0.85579170    -0.02900
Br425      Br  0.31034295  0.55812807  0.86169269    -0.01500
Br426      Br  0.31587781  0.64609735  0.80935761    -0.01500
Br427      Br  0.14628142  0.58443475  0.90272712    -0.01500
Br428      Br  0.14816111  0.66671504  0.83689743    -0.01500
C429        C  0.07148342  0.76969543  0.65980915    -0.02600
C430        C  0.06190696  0.73322519  0.63889547     0.07100
C431        C  0.08828877  0.70135107  0.64237134    -0.02700
C432        C  0.12392570  0.70568791  0.66741598    -0.02700
C433        C  0.13380523  0.74232572  0.68827810     0.07200
C434        C  0.10718106  0.77428853  0.68458859    -0.02900
Br435      Br  0.11991402  0.82521678  0.71121281    -0.01500
Br436      Br  0.03653841  0.81410171  0.65173060    -0.01500
Br437      Br  0.15790700  0.66053903  0.67544899    -0.01500
Br438      Br  0.07525946  0.65155950  0.61303849    -0.01500
C439        C  0.85078555  0.75490967  0.64340081    -0.02600
C440        C  0.84378795  0.73196933  0.68519965     0.07100
C441        C  0.87368562  0.70717510  0.70303351    -0.02700
C442        C  0.90993327  0.70435214  0.67813645    -0.02700
C443        C  0.91746860  0.72847380  0.63716300     0.07200
C444        C  0.88803173  0.75479567  0.62126195    -0.02900
Br445      Br  0.89973066  0.79428822  0.57313529    -0.01500
Br446      Br  0.80951344  0.78729810  0.61665194    -0.01500
Br447      Br  0.94831297  0.66620958  0.69937489    -0.01500
Br448      Br  0.86452516  0.67629480  0.76084433    -0.01500
C449        C  0.92038206  0.70953757  0.33544300    -0.02600
C450        C  0.92476863  0.73246777  0.37809928     0.07100
C451        C  0.89431067  0.75858961  0.39199180    -0.02700
C452        C  0.85911303  0.75992359  0.36555836    -0.02700
C453        C  0.85515841  0.73763151  0.32263352     0.07200
C454        C  0.88596487  0.71265336  0.30755584    -0.02900
Br455      Br  0.88002381  0.68078958  0.25013411    -0.01500
Br456      Br  0.96054807  0.67247037  0.31546407    -0.01500
Br457      Br  0.81632896  0.79267925  0.38825630    -0.01500
Br458      Br  0.90185176  0.79581240  0.44395816    -0.01500
C459        C  0.41123746  0.79543235  0.83740023    -0.02600
C460        C  0.41546897  0.77650170  0.88320913     0.07100
C461        C  0.38300503  0.75576443  0.90272555    -0.02700
C462        C  0.34732606  0.75449065  0.87713207    -0.02700
C463        C  0.34444579  0.77094537  0.83012760     0.07200
C464        C  0.37683580  0.79059873  0.80994110    -0.02900
Br465      Br  0.37410759  0.81128636  0.74453799    -0.01500
Br466      Br  0.45066312  0.83110535  0.81306094    -0.01500
Br467      Br  0.30278672  0.72801117  0.90569736    -0.01500
Br468      Br  0.38690369  0.72627955  0.96274634    -0.01500
C469        C  0.58351467  0.80397142  0.86824765    -0.02600
C470        C  0.55940724  0.77092853  0.87463986     0.07100
C471        C  0.57028800  0.73452406  0.85419302    -0.02700
C472        C  0.60526999  0.73102290  0.82718842    -0.02700
C473        C  0.62998716  0.76393711  0.82134344     0.07200
C474        C  0.61880455  0.80052308  0.84172858    -0.02900
Br475      Br  0.65094083  0.84638583  0.83183695    -0.01500
Br476      Br  0.56785245  0.85396079  0.89570172    -0.01500
Br477      Br  0.61990985  0.68035652  0.80070487    -0.01500
Br478      Br  0.53803356  0.68895500  0.86570491    -0.01500
C479        C  0.63310274  0.79455632  0.15471262    -0.02600
C480        C  0.64806623  0.75767469  0.16963782     0.07100
C481        C  0.62621861  0.72341785  0.16019941    -0.02700
C482        C  0.58876006  0.72613018  0.13927182    -0.02700
C483        C  0.57313664  0.76308524  0.12646477     0.07200
C484        C  0.59581086  0.79716267  0.13293210    -0.02900
Br485      Br  0.57537219  0.84743052  0.11228874    -0.01500
Br486      Br  0.66305098  0.84167968  0.16516575    -0.01500
Br487      Br  0.55942837  0.67896129  0.12632830    -0.01500
Br488      Br  0.64881434  0.67236905  0.17203302    -0.01500
C489        C  0.29571688  0.87191032  0.32308892    -0.02600
C490        C  0.26208883  0.84919824  0.33197200     0.07100
C491        C  0.23250270  0.86387166  0.36309719    -0.02700
C492        C  0.23581684  0.90164597  0.38379237    -0.02700
C493        C  0.26978723  0.92420074  0.37567085     0.07200
C494        C  0.29996782  0.90888722  0.34572203    -0.02900
Br495      Br  0.34824187  0.93715276  0.33806009    -0.01500
Br496      Br  0.33619878  0.85195353  0.28033079    -0.01500
Br497      Br  0.19293083  0.92315203  0.42155004    -0.01500
Br498      Br  0.18790174  0.83174133  0.37851831    -0.01500
C499        C  0.20497828  0.61133714  0.19817087    -0.02600
C500        C  0.23776346  0.63584469  0.19215597     0.07100
C501        C  0.26594804  0.62690085  0.15605841    -0.02700
C502        C  0.26185940  0.59321718  0.12675778    -0.02700
C503        C  0.22916686  0.56856797  0.13290183     0.07200
C504        C  0.20053116  0.57789935  0.16835684    -0.02900
Br505      Br  0.15396109  0.54628380  0.17374506    -0.01500
Br506      Br  0.16566454  0.62430330  0.24627538    -0.01500
Br507      Br  0.30161892  0.58044564  0.07891838    -0.01500
Br508      Br  0.30999298  0.66124597  0.14620980    -0.01500
C509        C  0.38831764  0.72855239  0.20333720    -0.02600
C510        C  0.35652669  0.75473151  0.19414648     0.07100
C511        C  0.36186802  0.78505420  0.15913074    -0.02700
C512        C  0.39732158  0.78807289  0.13280278    -0.02700
C513        C  0.42846932  0.76142498  0.14120751     0.07200
C514        C  0.42405846  0.73231684  0.17755525    -0.02900
Br515      Br  0.46631469  0.69593769  0.19126674    -0.01500
Br516      Br  0.38347893  0.68535919  0.24898649    -0.01500
Br517      Br  0.40367573  0.83074126  0.08677017    -0.01500
Br518      Br  0.32182923  0.82451290  0.14740137    -0.01500
C519        C  0.11297967  0.76139352  0.32778181    -0.02600
C520        C  0.14166029  0.73144323  0.33505984     0.07100
C521        C  0.13295672  0.70021626  0.36774064    -0.02700
C522        C  0.09620752  0.69870702  0.39150107    -0.02700
C523        C  0.06861903  0.72925875  0.38526612     0.07200
C524        C  0.07727702  0.76067026  0.35369308    -0.02900
Br525      Br  0.04078376  0.80417300  0.34766290    -0.01500
Br526      Br  0.12171569  0.80503824  0.28377981    -0.01500
Br527      Br  0.08239274  0.65316927  0.42999240    -0.01500
Br528      Br  0.17001461  0.65808650  0.37964240    -0.01500
loop_ 
_geom_bond_atom_site_label_1 
_geom_bond_atom_site_label_2 
_geom_bond_distance 
_geom_bond_site_symmetry_2 
_ccdc_geom_bond_type 
O1           Cu9   2.020       .  S
O1           C11   1.278       .  A
O2           Cu9   1.996       .  S
O2           C12   1.274       .  A
O3           Cu9   2.008       .  S
O3           C13   1.277       .  A
O4           Cu9   2.010       .  S
O4           C14   1.277       .  A
O5          Cu10   2.020       .  S
O5           C14   1.278       .  A
O6          Cu10   2.021       .  S
O6           C13   1.278       .  A
O7          Cu10   2.039       .  S
O7           C12   1.281       .  A
O8          Cu10   2.021       .  S
O8           C11   1.278       .  A
Cu9         Cu10   2.365       .  S
C11         C490   1.480       .  S
C12         C500   1.477       .  S
C13         C520   1.499       .  S
C14         C510   1.504       .  S
C15         C483   1.480       .  S
C15          N16   1.357       .  A
C15          N20   1.361       .  A
N16          C17   1.359       .  A
C17          C25   1.474   1_554  S
C17          N18   1.357       .  A
N18          C19   1.362       .  A
C19         C513   1.494       .  S
C19          N20   1.363       .  A
C21         C460   1.500       .  S
C21          N22   1.359       .  A
C21          N26   1.364       .  A
N22          C23   1.357       .  A
C23         C470   1.471       .  S
C23          N24   1.354       .  A
N24          C25   1.355       .  A
C25          N26   1.363       .  A
C27         C523   1.482       .  S
C27          N28   1.358       .  A
C27          N32   1.357   1_455  A
N28          C29   1.360   1_455  A
C29          C35   1.477       .  S
C29          N30   1.362       .  A
N30          C31   1.363       .  A
C31         C450   1.490       .  S
C31          N32   1.357       .  A
C33         C443   1.491       .  S
C33          N34   1.364       .  A
C33          N38   1.361       .  A
N34          C35   1.361       .  A
C35          N36   1.358   1_655  A
N36          C37   1.357       .  A
C37         C430   1.478       .  S
C37          N38   1.360   1_455  A
O39         Cu47   2.006       .  S
O39          C49   1.277       .  A
O40         Cu47   2.010       .  S
O40          C50   1.277       .  A
O41         Cu47   2.020       .  S
O41          C51   1.280       .  A
O42         Cu47   2.026       .  S
O42          C52   1.280       .  A
O43         Cu48   2.008       .  S
O43          C52   1.277       .  A
O44         Cu48   2.007       .  S
O44          C51   1.277       .  A
O45         Cu48   2.021       .  S
O45          C50   1.280       .  A
O46         Cu48   2.023       .  S
O46          C49   1.280       .  A
Cu47        Cu48   2.372       .  S
C49         C463   1.483       .  S
C50         C433   1.487       .  S
C51         C420   1.484       .  S
C52         C413   1.481       .  S
C53         C393   1.491       .  S
C53          N54   1.357       .  A
C53          N58   1.357       .  A
N54          C55   1.355       .  A
C55          C61   1.475   1_554  S
C55          N56   1.364       .  A
N56          C57   1.362       .  A
C57         C400   1.492       .  S
C57          N58   1.356       .  A
C59         C370   1.492       .  S
C59          N60   1.362       .  A
C59          N64   1.359       .  A
N60          C61   1.364       .  A
C61          N62   1.355       .  A
N62          C63   1.358       .  A
C63         C380   1.492       .  S
C63          N64   1.363       .  A
C65         C360   1.474       .  S
C65          N66   1.358       .  A
C65          N70   1.357       .  A
N66          C67   1.360       .  A
C67          C75   1.473   1_554  S
C67          N68   1.360       .  A
N68          C69   1.360       .  A
C69         C503   1.478       .  S
C69          N70   1.357       .  A
C71         C423   1.477       .  S
C71          N72   1.360       .  A
C71          N76   1.359       .  A
N72          C73   1.360       .  A
C73         C350   1.484       .  S
C73          N74   1.359       .  A
N74          C75   1.358       .  A
C75          N76   1.359       .  A
C77         C343   1.479       .  S
C77          N78   1.357       .  A
C77          N82   1.359   1_655  A
N78          C79   1.359   1_655  A
C79          C85   1.469       .  S
C79          N80   1.357       .  A
N80          C81   1.358       .  A
C81         C330   1.470       .  S
C81          N82   1.360       .  A
C83         C323   1.478       .  S
C83          N84   1.353       .  A
C83          N88   1.360   1_655  A
N84          C85   1.353   1_655  A
C85          N86   1.360       .  A
N86          C87   1.364       .  A
C87         C310   1.497       .  S
C87          N88   1.363       .  A
C89         C493   1.485       .  S
C89          N90   1.364       .  A
C89          N94   1.361       .  A
N90          C91   1.364   1_565  A
C91         C303   1.493       .  S
C91          N92   1.359       .  A
N92          C93   1.357   1_545  A
C93          C97   1.476   1_565  S
C93          N94   1.359       .  A
C95         C293   1.476       .  S
C95          N96   1.358       .  A
C95         N100   1.358       .  A
N96          C97   1.360       .  A
C97          N98   1.360   1_545  A
N98          C99   1.362       .  A
C99         C410   1.492       .  S
C99         N100   1.360   1_565  A
O101       Cu109   1.999       .  S
O101        C111   1.275       .  A
O102       Cu109   2.014       .  S
O102        C112   1.278       .  A
O103       Cu109   2.030       .  S
O103        C113   1.281       .  A
O104       Cu109   2.025       .  S
O104        C114   1.278       .  A
O105       Cu110   2.023       .  S
O105        C114   1.278       .  A
O106       Cu110   2.031       .  S
O106        C113   1.280       .  A
O107       Cu110   2.016       .  S
O107        C112   1.277       .  A
O108       Cu110   2.023       .  S
O108        C111   1.279       .  A
Cu109      Cu110   2.363       .  S
C111        C353   1.474       .  S
C112        C290   1.477       .  S
C113        C373   1.505       .  S
C114        C313   1.517       .  S
O115       Cu123   2.003       .  S
O115        C125   1.276       .  A
O116       Cu123   1.998       .  S
O116        C126   1.276       .  A
O117       Cu123   2.020       .  S
O117        C127   1.279       .  A
O118       Cu123   2.020       .  S
O118        C128   1.279       .  A
O119       Cu124   2.002       .  S
O119        C128   1.277       .  A
O120       Cu124   2.005       .  S
O120        C127   1.276       .  A
O121       Cu124   2.010       .  S
O121        C126   1.278       .  A
O122       Cu124   2.006       .  S
O122        C125   1.278       .  A
Cu123      Cu124   2.375       .  S
C125        C333   1.475       .  S
C126        C390   1.475       .  S
C127        C300   1.477       .  S
C128        C363   1.481       .  S
O129       Cu137   2.016       .  S
O129        C139   1.278       .  A
O130       Cu137   2.002       .  S
O130        C140   1.275       .  A
O131       Cu137   2.005       .  S
O131        C141   1.277       .  A
O132       Cu137   2.006       .  S
O132        C142   1.276       .  A
O133       Cu138   2.025       .  S
O133        C142   1.279       .  A
O134       Cu138   2.025       .  S
O134        C141   1.280       .  A
O135       Cu138   2.019       .  S
O135        C140   1.279       .  A
O136       Cu138   2.010       .  S
O136        C139   1.276       .  A
Cu137      Cu138   2.366       .  S
C139        C280   1.475       .  S
C140        C273   1.473       .  S
C141        C340   1.490       .  S
C142        C403   1.509       .  S
C143        C260   1.478       .  S
C143        N144   1.359       .  A
C143        N148   1.360       .  A
N144        C145   1.357       .  A
C145        C151   1.465   1_554  S
C145        N146   1.357       .  A
N146        C147   1.354       .  A
C147        C270   1.471       .  S
C147        N148   1.357       .  A
C149        C250   1.488       .  S
C149        N150   1.362       .  A
C149        N154   1.356       .  A
N150        C151   1.360       .  A
C151        N152   1.355       .  A
N152        C153   1.352       .  A
C153        C240   1.468       .  S
C153        N154   1.354       .  A
C155        C283   1.485       .  S
C155        N156   1.360   1_545  A
C155        N160   1.353       .  A
N156        C157   1.362       .  A
C157        C230   1.477       .  S
C157        N158   1.363       .  A
N158        C159   1.360       .  A
C159        C163   1.471       .  S
C159        N160   1.355   1_565  A
C161        C210   1.479       .  S
C161        N162   1.353       .  A
C161        N166   1.359   1_545  A
N162        C163   1.356   1_545  A
C163        N164   1.359       .  A
N164        C165   1.363       .  A
C165        C223   1.479       .  S
C165        N166   1.362       .  A
O167       Cu175   2.026       .  S
O167        C177   1.280       .  A
O168       Cu175   2.012       .  S
O168        C178   1.278       .  A
O169       Cu175   1.996       .  S
O169        C179   1.275       .  A
O170       Cu175   1.984       .  S
O170        C180   1.274       .  A
O171       Cu176   2.009       .  S
O171        C180   1.279       .  A
O172       Cu176   2.024       .  S
O172        C179   1.280       .  A
O173       Cu176   2.011       .  S
O173        C178   1.277       .  A
O174       Cu176   1.998       .  S
O174        C177   1.274       .  A
Cu175      Cu176   2.370       .  S
C177        C320   1.472       .  S
C178        C383   1.482       .  S
C179        C213   1.494       .  S
C180        C243   1.479       .  S
O181       Cu189   2.030       .  S
O181        C191   1.280       .  A
O182       Cu189   2.025       .  S
O182        C192   1.279       .  A
O183       Cu189   2.014       .  S
O183        C193   1.278       .  A
O184       Cu189   2.012       .  S
O184        C194   1.277       .  A
O185       Cu190   2.015       .  S
O185        C194   1.277       .  A
O186       Cu190   2.016       .  S
O186        C193   1.279       .  A
O187       Cu190   2.019       .  S
O187        C192   1.279       .  A
O188       Cu190   2.004       .  S
O188        C191   1.276       .  A
Cu189      Cu190   2.366       .  S
C191        C453   1.481       .  S
C192        C480   1.487       .  S
C193        C233   1.488       .  S
C194        C263   1.503       .  S
O195       Cu203   2.009       .  S
O195        C205   1.278       .  A
O196       Cu203   2.002       .  S
O196        C206   1.277       .  A
O197       Cu203   2.020       .  S
O197        C207   1.279       .  A
O198       Cu203   2.011       .  S
O198        C208   1.278       .  A
O199       Cu204   2.012       .  S
O199        C208   1.278       .  A
O200       Cu204   2.014       .  S
O200        C207   1.278       .  A
O201       Cu204   2.011       .  S
O201        C206   1.278       .  A
O202       Cu204   2.011       .  S
O202        C205   1.278       .  A
Cu203      Cu204   2.373       .  S
C205        C220   1.485       .  S
C206        C253   1.475       .  S
C207        C440   1.480       .  S
C208        C473   1.481       .  S
C209        C210   1.406       .  A
C209        C214   1.409       .  A
C209       Br216   1.929       .  S
C210        C211   1.408       .  A
C211        C212   1.409       .  A
C211       Br218   1.934       .  S
C212        C213   1.418       .  A
C212       Br217   1.930       .  S
C213        C214   1.422       .  A
C214       Br215   1.938       .  S
C219        C220   1.414       .  A
C219        C224   1.409       .  A
C219       Br226   1.932       .  S
C220        C221   1.416       .  A
C221        C222   1.409       .  A
C221       Br228   1.935       .  S
C222        C223   1.409       .  A
C222       Br227   1.928       .  S
C223        C224   1.409       .  A
C224       Br225   1.931       .  S
C229        C230   1.407       .  A
C229        C234   1.409       .  A
C229       Br236   1.932       .  S
C230        C231   1.407       .  A
C231        C232   1.411       .  A
C231       Br238   1.929       .  S
C232        C233   1.415       .  A
C232       Br237   1.931       .  S
C233        C234   1.417       .  A
C234       Br235   1.933       .  S
C239        C240   1.407       .  A
C239        C244   1.404       .  A
C239       Br246   1.934       .  S
C240        C241   1.408       .  A
C241        C242   1.405       .  A
C241       Br248   1.935       .  S
C242        C243   1.417       .  A
C242       Br247   1.935       .  S
C243        C244   1.415       .  A
C244       Br245   1.934       .  S
C249        C250   1.420       .  A
C249        C254   1.407       .  A
C249       Br256   1.936       .  S
C250        C251   1.417       .  A
C251        C252   1.408       .  A
C251       Br258   1.935       .  S
C252        C253   1.409       .  A
C252       Br257   1.933       .  S
C253        C254   1.407       .  A
C254       Br255   1.934       .  S
C259        C260   1.406       .  A
C259        C264   1.408       .  A
C259       Br266   1.936       .  S
C260        C261   1.405       .  A
C261        C262   1.410       .  A
C261       Br268   1.935       .  S
C262        C263   1.426       .  A
C262       Br267   1.935       .  S
C263        C264   1.425       .  A
C264       Br265   1.935       .  S
C269        C270   1.409       .  A
C269        C274   1.406       .  A
C269       Br276   1.931       .  S
C270        C271   1.407       .  A
C271        C272   1.409       .  A
C271       Br278   1.928       .  S
C272        C273   1.410       .  A
C272       Br277   1.928       .  S
C273        C274   1.409       .  A
C274       Br275   1.929       .  S
C279        C280   1.408       .  A
C279        C284   1.410       .  A
C279       Br286   1.929       .  S
C280        C281   1.407       .  A
C281        C282   1.407       .  A
C281       Br288   1.931       .  S
C282        C283   1.417       .  A
C282       Br287   1.934       .  S
C283        C284   1.413       .  A
C284       Br285   1.930       .  S
C289        C290   1.409       .  A
C289        C294   1.411       .  A
C289       Br296   1.929       .  S
C290        C291   1.410       .  A
C291        C292   1.407       .  A
C291       Br298   1.929       .  S
C292        C293   1.408       .  A
C292       Br297   1.929       .  S
C293        C294   1.410       .  A
C294       Br295   1.928       .  S
C299        C300   1.407       .  A
C299        C304   1.412       .  A
C299       Br306   1.930       .  S
C300        C301   1.407       .  A
C301        C302   1.407       .  A
C301       Br308   1.933       .  S
C302        C303   1.418       .  A
C302       Br307   1.934       .  S
C303        C304   1.416       .  A
C304       Br305   1.925       .  S
C309        C310   1.411       .  A
C309        C314   1.415       .  A
C309       Br316   1.938       .  S
C310        C311   1.413       .  A
C311        C312   1.416       .  A
C311       Br318   1.939       .  S
C312        C313   1.428       .  A
C312       Br317   1.938       .  S
C313        C314   1.428       .  A
C314       Br315   1.938       .  S
C319        C320   1.408       .  A
C319        C324   1.410       .  A
C319       Br326   1.926       .  S
C320        C321   1.405       .  A
C321        C322   1.404       .  A
C321       Br328   1.930       .  S
C322        C323   1.414       .  A
C322       Br327   1.933       .  S
C323        C324   1.411       .  A
C324       Br325   1.930       .  S
C329        C330   1.407       .  A
C329        C334   1.406       .  A
C329       Br336   1.929       .  S
C330        C331   1.407       .  A
C331        C332   1.407       .  A
C331       Br338   1.929       .  S
C332        C333   1.412       .  A
C332       Br337   1.932       .  S
C333        C334   1.413       .  A
C334       Br335   1.932       .  S
C339        C340   1.417       .  A
C339        C344   1.408       .  A
C339       Br346   1.935       .  S
C340        C341   1.417       .  A
C341        C342   1.412       .  A
C341       Br348   1.932       .  S
C342        C343   1.409       .  A
C342       Br347   1.931       .  S
C343        C344   1.407       .  A
C344       Br345   1.929       .  S
C349        C350   1.415       .  A
C349        C354   1.411       .  A
C349       Br356   1.931       .  S
C350        C351   1.414       .  A
C351        C352   1.406       .  A
C351       Br358   1.933       .  S
C352        C353   1.406       .  A
C352       Br357   1.931       .  S
C353        C354   1.408       .  A
C354       Br355   1.931       .  S
C359        C360   1.407       .  A
C359        C364   1.407       .  A
C359       Br366   1.931       .  S
C360        C361   1.407       .  A
C361        C362   1.410       .  A
C361       Br368   1.929       .  S
C362        C363   1.413       .  A
C362       Br367   1.930       .  S
C363        C364   1.414       .  A
C364       Br365   1.933       .  S
C369        C370   1.411       .  A
C369        C374   1.416       .  A
C369       Br376   1.933       .  S
C370        C371   1.409       .  A
C371        C372   1.414       .  A
C371       Br378   1.931       .  S
C372        C373   1.419       .  A
C372       Br377   1.932       .  S
C373        C374   1.422       .  A
C374       Br375   1.933       .  S
C379        C380   1.421       .  A
C379        C384   1.411       .  A
C379       Br386   1.936       .  S
C380        C381   1.415       .  A
C381        C382   1.407       .  A
C381       Br388   1.935       .  S
C382        C383   1.409       .  A
C382       Br387   1.925       .  S
C383        C384   1.411       .  A
C384       Br385   1.936       .  S
C389        C390   1.407       .  A
C389        C394   1.407       .  A
C389       Br396   1.933       .  S
C390        C391   1.409       .  A
C391        C392   1.408       .  A
C391       Br398   1.936       .  S
C392        C393   1.422       .  A
C392       Br397   1.938       .  S
C393        C394   1.420       .  A
C394       Br395   1.935       .  S
C399        C400   1.414       .  A
C399        C404   1.413       .  A
C399       Br406   1.938       .  S
C400        C401   1.409       .  A
C401        C402   1.413       .  A
C401       Br408   1.936       .  S
C402        C403   1.426       .  A
C402       Br407   1.939       .  S
C403        C404   1.425       .  A
C404       Br405   1.938       .  S
C409        C410   1.416       .  A
C409        C414   1.409       .  A
C409       Br416   1.932       .  S
C410        C411   1.417       .  A
C411        C412   1.411       .  A
C411       Br418   1.932       .  S
C412        C413   1.408       .  A
C412       Br417   1.930       .  S
C413        C414   1.409       .  A
C414       Br415   1.932       .  S
C419        C420   1.415       .  A
C419        C424   1.409       .  A
C419       Br426   1.933       .  S
C420        C421   1.413       .  A
C421        C422   1.409       .  A
C421       Br428   1.930       .  S
C422        C423   1.408       .  A
C422       Br427   1.929       .  S
C423        C424   1.408       .  A
C424       Br425   1.931       .  S
C429        C430   1.408       .  A
C429        C434   1.409       .  A
C429       Br436   1.932       .  S
C430        C431   1.408       .  A
C431        C432   1.410       .  A
C431       Br438   1.930       .  S
C432        C433   1.415       .  A
C432       Br437   1.931       .  S
C433        C434   1.416       .  A
C434       Br435   1.932       .  S
C439        C440   1.408       .  A
C439        C444   1.407       .  A
C439       Br446   1.932       .  S
C440        C441   1.410       .  A
C441        C442   1.414       .  A
C441       Br448   1.929       .  S
C442        C443   1.416       .  A
C442       Br447   1.930       .  S
C443        C444   1.413       .  A
C444       Br445   1.927       .  S
C449        C450   1.417       .  A
C449        C454   1.410       .  A
C449       Br456   1.934       .  S
C450        C451   1.414       .  A
C451        C452   1.409       .  A
C451       Br458   1.927       .  S
C452        C453   1.409       .  A
C452       Br457   1.932       .  S
C453        C454   1.408       .  A
C454       Br455   1.926       .  S
C459        C460   1.421       .  A
C459        C464   1.411       .  A
C459       Br466   1.934       .  S
C460        C461   1.420       .  A
C461        C462   1.411       .  A
C461       Br468   1.935       .  S
C462        C463   1.411       .  A
C462       Br467   1.935       .  S
C463        C464   1.407       .  A
C464       Br465   1.932       .  S
C469        C470   1.407       .  A
C469        C474   1.409       .  A
C469       Br476   1.930       .  S
C470        C471   1.406       .  A
C471        C472   1.407       .  A
C471       Br478   1.932       .  S
C472        C473   1.415       .  A
C472       Br477   1.931       .  S
C473        C474   1.413       .  A
C474       Br475   1.931       .  S
C479        C480   1.413       .  A
C479        C484   1.413       .  A
C479       Br486   1.929       .  S
C480        C481   1.412       .  A
C481        C482   1.408       .  A
C481       Br488   1.923       .  S
C482        C483   1.407       .  A
C482       Br487   1.930       .  S
C483        C484   1.409       .  A
C484       Br485   1.928       .  S
C489        C490   1.408       .  A
C489        C494   1.411       .  A
C489       Br496   1.929       .  S
C490        C491   1.409       .  A
C491        C492   1.410       .  A
C491       Br498   1.925       .  S
C492        C493   1.412       .  A
C492       Br497   1.930       .  S
C493        C494   1.412       .  A
C494       Br495   1.924       .  S
C499        C500   1.409       .  A
C499        C504   1.410       .  A
C499       Br506   1.927       .  S
C500        C501   1.410       .  A
C501        C502   1.408       .  A
C501       Br508   1.928       .  S
C502        C503   1.410       .  A
C502       Br507   1.932       .  S
C503        C504   1.411       .  A
C504       Br505   1.930       .  S
C509        C510   1.423       .  A
C509        C514   1.414       .  A
C509       Br516   1.938       .  S
C510        C511   1.422       .  A
C511        C512   1.411       .  A
C511       Br518   1.937       .  S
C512        C513   1.413       .  A
C512       Br517   1.937       .  S
C513        C514   1.414       .  A
C514       Br515   1.933       .  S
C519        C520   1.423       .  A
C519        C524   1.409       .  A
C519       Br526   1.938       .  S
C520        C521   1.422       .  A
C521        C522   1.413       .  A
C521       Br528   1.934       .  S
C522        C523   1.409       .  A
C522       Br527   1.934       .  S
C523        C524   1.408       .  A
C524       Br525   1.935       .  S
