geometry optimzed in LAMMPS
_audit_creation_date              2020-11-30 
_audit_creation_method            'lammps2cif' 
_symmetry_space_group_name_H-M    'P1' 
_symmetry_Int_Tables_number       1 
_symmetry_cell_setting            triclinic 
loop_ 
_symmetry_equiv_pos_as_xyz 
  x,y,z 
_cell_length_a                    62.09931455 
_cell_length_b                    62.26067004807798 
_cell_length_c                    43.097854655660576 
_cell_angle_alpha                 89.69676776586537 
_cell_angle_beta                  90.15331095419104 
_cell_angle_gamma                 120.71773356758119 
loop_ 
_atom_site_label 
_atom_site_type_symbol 
_atom_site_fract_x 
_atom_site_fract_y 
_atom_site_fract_z 
_atom_site_charge 
Fe1        Fe  0.21419117  0.28430836  0.19277633     1.65800
Fe2        Fe  0.24680605  0.25449411  0.18403396     1.73200
Fe3        Fe  0.22758743  0.27342379  0.11946959     1.54400
O4          O  0.19017519  0.26278681  0.11913159    -0.80500
O5          O  0.27681588  0.27220672  0.15439407    -0.78800
O6          O  0.18196825  0.26943958  0.16719391    -0.83000
O7          O  0.23003003  0.31727841  0.16896176    -0.77900
O8          O  0.21658973  0.23615993  0.11287578    -0.79700
O9          O  0.26725694  0.28339830  0.21520738    -0.82400
C10         C  0.23828570  0.32511135  0.14190948     0.98300
C11         C  0.17537303  0.26244557  0.13951831     1.05800
O12         O  0.22952207  0.27070167  0.16534651    -1.11400
O13         O  0.21877465  0.23403527  0.21618645    -0.73800
O14         O  0.19686780  0.25315134  0.21992498    -0.77300
O15         O  0.23837065  0.31108626  0.12063672    -0.78000
C16         C  0.20085223  0.23580719  0.22726254     0.97300
O17         O  0.24417893  0.30093490  0.22228833    -0.76000
O18         O  0.22884694  0.22416304  0.15483159    -0.81200
C19         C  0.28114021  0.28252712  0.12791486     0.99900
C20         C  0.21849902  0.21972400  0.12828428     1.05800
O21         O  0.26468393  0.28452036  0.11286189    -0.76800
C22         C  0.26331143  0.29937703  0.22809495     1.04100
Fe23       Fe  0.21682217  0.43210904  0.19595644     1.65800
Fe24       Fe  0.24922686  0.99556174  0.18859638     1.73200
Fe25       Fe  0.23197441  0.45822149  0.12331477     1.54400
O26         O  0.24088204  0.43027015  0.12429423    -0.80500
O27         O  0.23321414  0.00883497  0.15835751    -0.78800
O28         O  0.23266625  0.41513829  0.17247488    -0.83000
O29         O  0.18520683  0.41518277  0.16929595    -0.77900
O30         O  0.26977435  0.48389335  0.11933558    -0.79700
O31         O  0.21936741  0.48657690  0.21836991    -0.82400
C32         C  0.17892108  0.41672371  0.14177641     0.98300
C33         C  0.24036607  0.41558030  0.14518393     1.05800
O34         O  0.23265006  0.46195048  0.16918721    -1.11400
O35         O  0.26816686  0.98687371  0.22105649    -0.73800
O36         O  0.24639696  0.44538246  0.22592641    -0.77300
O37         O  0.19407907  0.43193764  0.12181300    -0.78000
C38         C  0.26481083  0.46661131  0.23268167     0.97300
O39         O  0.19901265  0.44516656  0.22287525    -0.76000
O40         O  0.28048303  0.00851159  0.16086993    -0.81200
C41         C  0.22439969  0.00370031  0.13111224     0.99900
C42         C  0.28577683  0.00241924  0.13517629     1.05800
O43         O  0.22282259  0.48552002  0.11563188    -0.76800
C44         C  0.20162512  0.46617266  0.22920506     1.04100
Fe45       Fe  0.07301884  0.28793090  0.19186316     1.65800
Fe46       Fe  0.50968870  0.25368521  0.18547113     1.73200
Fe47       Fe  0.04626108  0.27548981  0.11958837     1.54400
O48         O  0.07381467  0.31302157  0.11975418    -0.80500
O49         O  0.49862191  0.22357535  0.15706812    -0.78800
O50         O  0.08891918  0.32086960  0.16790732    -0.83000
O51         O  0.09043475  0.27427835  0.16514946    -0.77900
O52         O  0.01971702  0.28608427  0.11555593    -0.79700
O53         O  0.02000579  0.23513937  0.21711643    -0.82400
C54         C  0.08842805  0.26577266  0.13799461     0.98300
C55         C  0.08836421  0.32774148  0.14041190     1.05800
O56         O  0.04296138  0.27243082  0.16554759    -1.11400
O57         O  0.01726608  0.28236826  0.21592677    -0.73800
O58         O  0.05874303  0.30303919  0.22166545    -0.77300
O59         O  0.07296589  0.26500924  0.11811351    -0.78000
C60         C  0.03732717  0.29976075  0.22781744     0.97300
O61         O  0.06150585  0.25717284  0.21931602    -0.76000
O62         O  0.49422165  0.26851152  0.15601693    -0.81200
C63         C  0.50315752  0.22061096  0.12928086     0.99900
C64         C  0.49994652  0.28058739  0.13058430     1.05800
O65         O  0.01954608  0.23834114  0.11272419    -0.76800
C66         C  0.04075120  0.23845725  0.22700400     1.04100
Fe67       Fe  0.23709036  0.12074387  0.02768645     1.65800
Fe68       Fe  0.17370837  0.08533968  0.02057881     1.73200
Fe69       Fe  0.21116675  0.10427441  0.45519230     1.54400
O70         O  0.23828807  0.14197618  0.45308212    -0.80500
O71         O  0.16135682  0.05425524  0.49285219    -0.78800
O72         O  0.25253972  0.15247700  0.00134616    -0.83000
O73         O  0.25541181  0.10653507  0.00397775    -0.77900
O74         O  0.18425206  0.11419195  0.44841241    -0.79700
O75         O  0.18404669  0.06733873  0.05283478    -0.82400
C76         C  0.25397533  0.09660493  0.47791332     0.98300
C77         C  0.25208284  0.15795849  0.47315943     1.05800
O78         O  0.20725830  0.10341092  0.00105652    -1.11400
O79         O  0.18110233  0.11458014  0.05048449    -0.73800
O80         O  0.22257425  0.13695979  0.05491738    -0.77300
O81         O  0.23841186  0.09420981  0.45702994    -0.78000
C82         C  0.20099926  0.13299184  0.06127658     0.97300
O83         O  0.22542071  0.09123364  0.05738563    -0.76000
O84         O  0.15942098  0.10040530  0.49009913    -0.81200
C85         C  0.16660311  0.05016459  0.46590098     0.99900
C86         C  0.16513527  0.11071929  0.46352905     1.05800
O87         O  0.18462876  0.06689793  0.45006598    -0.76800
C88         C  0.20483772  0.07187278  0.06418658     1.04100
Fe89       Fe  0.38470306  0.11892905  0.03095864     1.65800
Fe90       Fe  0.41553530  0.08757015  0.01996643     1.73200
Fe91       Fe  0.39473794  0.10636775  0.45684130     1.54400
O92         O  0.35675080  0.09399544  0.45958058    -0.80500
O93         O  0.44379997  0.10412958  0.48826714    -0.78800
O94         O  0.35146488  0.10403279  0.00744091    -0.83000
O95         O  0.39960848  0.15161963  0.00646361    -0.77900
O96         O  0.38538203  0.06954931  0.44962670    -0.79700
O97         O  0.43793047  0.11681448  0.04941444    -0.82400
C98         C  0.40482891  0.15821592  0.47839318     0.98300
C99         C  0.34318375  0.09520718  0.48071650     1.05800
O100        O  0.39828015  0.10423055  0.00249702    -1.11400
O101        O  0.38897644  0.06821368  0.05399598    -0.73800
O102        O  0.36819770  0.08834294  0.05932087    -0.77300
O103        O  0.40340503  0.14339593  0.45728156    -0.78000
C104        C  0.37185514  0.07070687  0.06623319     0.97300
O105        O  0.41610500  0.13553954  0.05788827    -0.76000
O106        O  0.39601760  0.05672391  0.49222522    -0.81200
C107        C  0.44832617  0.11553710  0.46253870     0.99900
C108        C  0.38673772  0.05284590  0.46515617     1.05800
O109        O  0.43240339  0.11922499  0.44864332    -0.76800
C110        C  0.43508658  0.13344081  0.06230306     1.04100
Fe111      Fe  0.37930412  0.26316364  0.02670544     1.65800
Fe112      Fe  0.41439330  0.32626948  0.01957052     1.73200
Fe113      Fe  0.39447230  0.28933450  0.45431438     1.54400
O114        O  0.40577859  0.26320771  0.45490386    -0.80500
O115        O  0.40068812  0.34141948  0.48813754    -0.78800
O116        O  0.39163693  0.24419148  0.00058671    -0.83000
O117        O  0.34649621  0.24872736  0.00232903    -0.77900
O118        O  0.43164944  0.31679559  0.44850027    -0.79700
O119        O  0.38460385  0.31923579  0.04774873    -0.82400
C120        C  0.34102926  0.24807358  0.47390090     0.98300
C121        C  0.40223342  0.24654595  0.47470082     1.05800
O122        O  0.39611374  0.29295337  0.00011914    -1.11400
O123        O  0.43124204  0.31569562  0.05341522    -0.73800
O124        O  0.41014442  0.27416401  0.05406641    -0.77300
O125        O  0.35707517  0.26115681  0.45334600    -0.78000
C126        C  0.42822591  0.29497382  0.06288931     0.97300
O127        O  0.36493706  0.27823529  0.05641732    -0.76000
O128        O  0.44572004  0.33724126  0.49311498    -0.81200
C129        C  0.38846619  0.33504536  0.46286940     0.99900
C130        C  0.44912584  0.33310924  0.46533442     1.05800
O131        O  0.38298141  0.31502193  0.44872744    -0.76800
C132        C  0.36760161  0.29954087  0.06071404     1.04100
Fe133      Fe  0.40438838  0.45407924  0.35945860     1.65800
Fe134      Fe  0.34086646  0.42040698  0.35402553     1.73200
Fe135      Fe  0.37730469  0.43914379  0.28782568     1.54400
O136        O  0.40601969  0.47628714  0.28626605    -0.80500
O137        O  0.32764696  0.38912797  0.32637546    -0.78800
O138        O  0.41908067  0.48666015  0.33496768    -0.83000
O139        O  0.42250861  0.44092455  0.33293121    -0.77900
O140        O  0.35224159  0.45143253  0.28320111    -0.79700
O141        O  0.35111670  0.40210827  0.38617722    -0.82400
C142        C  0.41957904  0.43018487  0.30708407     0.98300
C143        C  0.41933321  0.49222891  0.30666703     1.05800
O144        O  0.37410878  0.43774996  0.33371120    -1.11400
O145        O  0.34934670  0.44989071  0.38386737    -0.73800
O146        O  0.39062277  0.46936876  0.38971587    -0.77300
O147        O  0.40277862  0.42698114  0.28772018    -0.78000
C148        C  0.36957814  0.46688966  0.39586375     0.97300
O149        O  0.39282958  0.42335742  0.38675343    -0.76000
O150        O  0.32688151  0.43623684  0.32416736    -0.81200
C151        C  0.33195040  0.38534692  0.29877376     0.99900
C152        C  0.33329983  0.44804246  0.29855526     1.05800
O153        O  0.34922003  0.40232708  0.28228659    -0.76800
C154        C  0.37197062  0.40517252  0.39539700     1.04100
Fe155      Fe  0.04699224  0.44901937  0.36067190     1.65800
Fe156      Fe  0.08002255  0.41992241  0.35175293     1.73200
Fe157      Fe  0.05972805  0.43766058  0.28766521     1.54400
O158        O  0.02290692  0.43007611  0.28884823    -0.80500
O159        O  0.11098738  0.44042051  0.32436758    -0.78800
O160        O  0.01309738  0.42946532  0.33863972    -0.83000
O161        O  0.05793043  0.47982067  0.33335008    -0.77900
O162        O  0.04610301  0.39973827  0.28227347    -0.79700
O163        O  0.09796842  0.44727736  0.38540462    -0.82400
C164        C  0.06918241  0.48858293  0.30784207     0.98300
C165        C  0.00720856  0.42625517  0.31017214     1.05800
O166        O  0.06233536  0.43556641  0.33328664    -1.11400
O167        O  0.05060542  0.39709063  0.38098478    -0.73800
O168        O  0.03409575  0.42045660  0.39212715    -0.77300
O169        O  0.07320481  0.47576319  0.28843932    -0.78000
C170        C  0.03547935  0.40106999  0.39600926     0.97300
O171        O  0.07922395  0.46972213  0.38557564    -0.76000
O172        O  0.06496464  0.39114874  0.32026026    -0.81200
C173        C  0.11389999  0.44721952  0.29616915     0.99900
C174        C  0.05181515  0.38508063  0.29572956     1.05800
O175        O  0.09624577  0.44595953  0.27974963    -0.76800
C176        C  0.09638667  0.46581075  0.39443740     1.04100
Fe177      Fe  0.04677728  0.09563455  0.35978850     1.65800
Fe178      Fe  0.08126796  0.15889301  0.35276285     1.73200
Fe179      Fe  0.06276706  0.12171044  0.28731550     1.54400
O180        O  0.07151774  0.09361996  0.28856388    -0.80500
O181        O  0.06576868  0.17302586  0.32254039    -0.78800
O182        O  0.06143673  0.07769521  0.33629556    -0.83000
O183        O  0.01508277  0.07973541  0.33343765    -0.77900
O184        O  0.10052527  0.14726717  0.28265615    -0.79700
O185        O  0.05223322  0.15122894  0.38316692    -0.82400
C186        C  0.00915325  0.08106218  0.30570391     0.98300
C187        C  0.07001406  0.07847035  0.30946878     1.05800
O188        O  0.06362724  0.12547341  0.33318001    -1.11400
O189        O  0.09979560  0.14896922  0.38486212    -0.73800
O190        O  0.07629508  0.10769468  0.38955098    -0.77300
O191        O  0.02475488  0.09563826  0.28565252    -0.78000
C192        C  0.09550896  0.12833011  0.39637301     0.97300
O193        O  0.03013427  0.10981342  0.38655816    -0.76000
O194        O  0.11206423  0.17128759  0.32470050    -0.81200
C195        C  0.05663435  0.16795189  0.29534709     0.99900
C196        C  0.11676368  0.16562693  0.29838881     1.05800
O197        O  0.05404662  0.14935929  0.28007062    -0.76800
C198        C  0.03389616  0.13112486  0.39362931     1.04100
C199        C  0.08977223  0.05447049  0.32635729     0.24700
C200        C  0.07748734  0.05999027  0.30297683    -0.23400
C201        C  0.06786280  0.04424444  0.27701511     0.19600
C202        C  0.06783312  0.02169281  0.27639382     0.24700
C203        C  0.07752966  0.01496459  0.30165822    -0.23300
C204        C  0.08985591  0.03217174  0.32562796     0.19600
F205        F  0.09969928  0.02614170  0.35003208    -0.13300
F206        F  0.09965527  0.06959250  0.35141957    -0.15600
F207        F  0.05591006  0.50530485  0.25303510    -0.15600
F208        F  0.05576923  0.04912021  0.25427500    -0.13300
C209        C  0.44132491  0.03743845  0.31811498     0.24700
C210        C  0.43737940  0.01817338  0.29780534    -0.23400
C211        C  0.45485749  0.02312240  0.27410652     0.19600
C212        C  0.47771955  0.04581229  0.27378172     0.24700
C213        C  0.48302478  0.06355610  0.29705940    -0.23300
C214        C  0.46403219  0.06001728  0.31772642     0.19600
F215        F  0.46861505  0.07727138  0.33991214    -0.13300
F216        F  0.42432906  0.03334010  0.34060322    -0.15600
F217        F  0.99593213  0.04880697  0.25372261    -0.15600
F218        F  0.45134285  0.50490411  0.25403486    -0.13300
C219        C  0.43968125  0.40609983  0.32156393     0.24700
C220        C  0.43719512  0.42173466  0.30010215    -0.23400
C221        C  0.45556406  0.43400911  0.27717978     0.19600
C222        C  0.47762614  0.43305180  0.27807568     0.24700
C223        C  0.48148094  0.41992751  0.30207953    -0.23300
C224        C  0.46165006  0.40514461  0.32253516     0.19600
F225        F  0.46439890  0.39145818  0.34516316    -0.13300
F226        F  0.42176104  0.39359130  0.34343925    -0.15600
F227        F  0.99642060  0.44757970  0.25804560    -0.15600
F228        F  0.45356049  0.44937805  0.25642140    -0.13300
C229        C  0.36106230  0.34393316  0.42823609     0.24700
C230        C  0.38152366  0.35244169  0.44875970    -0.23400
C231        C  0.39660486  0.37827184  0.45424246     0.19600
C232        C  0.39232832  0.39521868  0.43821405     0.24700
C233        C  0.37279745  0.38684930  0.41645190    -0.23300
C234        C  0.35666334  0.36103304  0.41229948     0.19600
F235        F  0.33774366  0.35241251  0.39128717    -0.13300
F236        F  0.34566898  0.31912984  0.42303981    -0.15600
F237        F  0.40802167  0.42004006  0.44312216    -0.15600
F238        F  0.41661791  0.38741127  0.47364963    -0.13300
C239        C  0.50390946  0.35694156  0.40987907     0.24700
C240        C  0.01756459  0.38231317  0.41796928    -0.23400
C241        C  0.01068931  0.39038557  0.44454924     0.19600
C242        C  0.48924443  0.37390895  0.46118456     0.24700
C243        C  0.47417347  0.34898363  0.45144014    -0.23300
C244        C  0.48223866  0.34039259  0.42638917     0.19600
F245        F  0.46857919  0.31624663  0.41704698    -0.13300
F246        F  0.51023793  0.34863041  0.38440582    -0.15600
F247        F  0.98216148  0.38301322  0.48512879    -0.15600
F248        F  0.02394673  0.41471476  0.45334869    -0.13300
C249        C  0.48431092  0.10919092  0.45464544     0.24700
C250        C  0.47269332  0.12305489  0.44776252    -0.23400
C251        C  0.48386970  0.14251260  0.42565908     0.19600
C252        C  0.50532788  0.14681651  0.40938744     0.24700
C253        C  0.01558009  0.13155428  0.41486309    -0.23300
C254        C  0.00545856  0.11347318  0.43847375     0.19600
F255        F  0.01533751  0.09886971  0.44492654    -0.13300
F256        F  0.47431741  0.09016135  0.47560891    -0.15600
F257        F  0.51501654  0.16468807  0.38694474    -0.15600
F258        F  0.47377069  0.15692054  0.41933419    -0.13300
C259        C  0.35617269  0.49746652  0.41000770     0.24700
C260        C  0.36951034  0.48539416  0.41719385    -0.23400
C261        C  0.38603298  0.49383726  0.44256507     0.19600
C262        C  0.39057752  0.01496312  0.45910120     0.24700
C263        C  0.37868468  0.02827323  0.45058714    -0.23300
C264        C  0.36083698  0.01882013  0.42646126     0.19600
F265        F  0.34839231  0.03064782  0.41821113    -0.13300
F266        F  0.34005261  0.48971947  0.38564551    -0.15600
F267        F  0.40793713  0.02327030  0.48213273    -0.15600
F268        F  0.39879163  0.48224849  0.45050168    -0.13300
C269        C  0.42504189  0.20305170  0.49233864     0.24700
C270        C  0.41139434  0.18400264  0.47066561    -0.23400
C271        C  0.39975120  0.18872040  0.44560617     0.19600
C272        C  0.39920449  0.21098346  0.44453153     0.24700
C273        C  0.41033816  0.22857517  0.46843126    -0.23300
C274        C  0.42450178  0.22513819  0.49120614     0.19600
F275        F  0.43585513  0.24222800  0.51413250    -0.13300
F276        F  0.43707562  0.19935367  0.51628293    -0.15600
F277        F  0.38535912  0.21397113  0.42236515    -0.15600
F278        F  0.38639041  0.17066568  0.42437704    -0.13300
C279        C  0.12220709  0.10402809  0.45614874     0.24700
C280        C  0.14798173  0.11789609  0.44922302    -0.23400
C281        C  0.15665469  0.13750335  0.42740525     0.19600
C282        C  0.13972885  0.14231872  0.41174730     0.24700
C283        C  0.11385467  0.12742468  0.41742866    -0.23300
C284        C  0.10538651  0.10875156  0.44044711     0.19600
F285        F  0.08056733  0.09431271  0.44694383    -0.13300
F286        F  0.11293416  0.08471787  0.47670225    -0.15600
F287        F  0.14849400  0.16036312  0.38951741    -0.15600
F288        F  0.18144065  0.15164478  0.42069956    -0.13300
C289        C  0.15798682  0.01762404  0.42541307     0.24700
C290        C  0.14992133  0.02548681  0.45130004    -0.23400
C291        C  0.12463235  0.01105325  0.46054148     0.19600
C292        C  0.10739959  0.49071309  0.44278147     0.24700
C293        C  0.11523828  0.48397390  0.41596064    -0.23300
C294        C  0.14079133  0.99696273  0.40794327     0.19600
F295        F  0.14870581  0.99080466  0.38193936    -0.13300
F296        F  0.18231203  0.03050086  0.41622761    -0.15600
F297        F  0.08284862  0.47815648  0.45105251    -0.15600
F298        F  0.11582455  0.51760947  0.48545188    -0.13300
C299        C  0.27278763  0.20315237  0.98396604     0.24700
C300        C  0.26975120  0.18398209  0.46409764    -0.23400
C301        C  0.28798703  0.18918776  0.44136869     0.19600
C302        C  0.31066960  0.21207568  0.44174317     0.24700
C303        C  0.31512643  0.22973661  0.46488903    -0.23300
C304        C  0.29538477  0.22588104  0.98444346     0.19600
F305        F  0.29893227  0.24309505  0.00620479    -0.13300
F306        F  0.25490582  0.19880304  0.00527749    -0.15600
F307        F  0.32941204  0.21544292  0.42245173    -0.15600
F308        F  0.28536410  0.17098533  0.42178696    -0.13300
C309        C  0.28869993  0.09780195  0.44734680     0.24700
C310        C  0.27205930  0.08836852  0.47256284    -0.23400
C311        C  0.27658215  0.07589240  0.99670195     0.19600
C312        C  0.29890321  0.07564895  0.99761109     0.24700
C313        C  0.31694701  0.08768059  0.47423392    -0.23300
C314        C  0.31107713  0.09739946  0.44814075     0.19600
F315        F  0.32830812  0.10931082  0.42539852    -0.13300
F316        F  0.28484291  0.11012242  0.42393279    -0.15600
F317        F  0.30383878  0.06555642  0.02271024    -0.15600
F318        F  0.26034366  0.06591312  0.02087703    -0.13300
C319        C  0.43874331  0.27508406  0.10613758     0.24700
C320        C  0.44672143  0.29449095  0.08420731    -0.23400
C321        C  0.47255733  0.31126991  0.08036247     0.19600
C322        C  0.49005530  0.30750581  0.09643586     0.24700
C323        C  0.48200334  0.28714231  0.11702445    -0.23300
C324        C  0.45613155  0.27153126  0.12248916     0.19600
F325        F  0.44744489  0.25168324  0.14212454    -0.13300
F326        F  0.41394041  0.25892500  0.11102711    -0.15600
F327        F  0.01486708  0.32339404  0.09117285    -0.15600
F328        F  0.48090174  0.33028761  0.05949615    -0.13300
C329        C  0.47944520  0.16636537  0.07323744     0.24700
C330        C  0.45443758  0.15181480  0.08303503    -0.23400
C331        C  0.44682332  0.15803980  0.11044323     0.19600
C332        C  0.46318288  0.17970741  0.12640663     0.24700
C333        C  0.48763073  0.19567684  0.11522428    -0.23300
C334        C  0.49597044  0.18830549  0.08917196     0.19600
F335        F  0.01972082  0.20274828  0.07841241    -0.13300
F336        F  0.48727327  0.16049532  0.04692758    -0.15600
F337        F  0.45427555  0.18598091  0.15136819    -0.15600
F338        F  0.42288338  0.14382406  0.12073223    -0.13300
C339        C  0.05292450  0.32678376  0.27431342     0.24700
C340        C  0.03649297  0.31784424  0.24895611    -0.23400
C341        C  0.02236627  0.32902204  0.24156162     0.19600
C342        C  0.02628854  0.35024997  0.25769039     0.24700
C343        C  0.04424145  0.36041765  0.28169484    -0.23300
C344        C  0.05666299  0.34765996  0.29063387     0.19600
F345        F  0.07374946  0.35616879  0.31397750    -0.13300
F346        F  0.56637167  0.31593949  0.28249122    -0.15600
F347        F  0.01316612  0.36128544  0.24902899    -0.15600
F348        F  0.00619515  0.32058822  0.21724231    -0.13300
C349        C  0.02697226  0.19409101  0.24118173     0.24700
C350        C  0.04149974  0.21978311  0.24760300    -0.23400
C351        C  0.05946330  0.22789679  0.27141115     0.19600
C352        C  0.06354905  0.21087433  0.28771340     0.24700
C353        C  0.04993482  0.18526648  0.28036657    -0.23300
C354        C  0.03130627  0.17698117  0.25723883     0.19600
F355        F  0.01766000  0.15240954  0.24969387    -0.13300
F356        F  0.50976696  0.18575479  0.21803240    -0.15600
F357        F  0.08202953  0.21979198  0.30936861    -0.15600
F358        F  0.07371139  0.25256930  0.27828714    -0.13300
C359        C  0.19815822  0.01149318  0.09324231     0.24700
C360        C  0.21668515  0.02029434  0.11649296    -0.23400
C361        C  0.22886415  0.04570095  0.12481732     0.19600
C362        C  0.22359095  0.06213714  0.10917540     0.24700
C363        C  0.20597930  0.05359829  0.08495891    -0.23300
C364        C  0.19273671  0.02801224  0.07772693     0.19600
F365        F  0.17586540  0.01930803  0.05415417    -0.13300
F366        F  0.18568439  0.98703280  0.08504449    -0.15600
F367        F  0.23646809  0.08670943  0.11693046    -0.15600
F368        F  0.24710450  0.05508715  0.14679466    -0.13300
C369        C  0.34172649  0.02659560  0.08138396     0.24700
C370        C  0.35448261  0.05210991  0.08866107    -0.23400
C371        C  0.34720708  0.06022218  0.11477471     0.19600
C372        C  0.32593228  0.04355991  0.13156230     0.24700
C373        C  0.31127704  0.01844118  0.12218382    -0.23300
C374        C  0.32014278  0.00984948  0.09790507     0.19600
F375        F  0.30739528  0.48548374  0.08922485    -0.13300
F376        F  0.34876267  0.01828303  0.05654069    -0.15600
F377        F  0.31866398  0.05264341  0.15534799    -0.15600
F378        F  0.35989981  0.08472015  0.12288204    -0.13300
C379        C  0.15269180  0.44489036  0.29145587     0.24700
C380        C  0.13856595  0.45557546  0.28162230    -0.23400
C381        C  0.14752774  0.47273208  0.25669957     0.19600
C382        C  0.16952627  0.47806870  0.24100054     0.24700
C383        C  0.18252195  0.46595635  0.24967367    -0.23300
C384        C  0.17432492  0.44996307  0.27558138     0.19600
F385        F  0.18675596  0.43830726  0.28472597    -0.13300
F386        F  0.14464224  0.42804429  0.31510756    -0.15600
F387        F  0.17708694  0.49363485  0.21604180    -0.15600
F388        F  0.13469561  0.48383832  0.24706983    -0.13300
C389        C  0.29264959  0.44754511  0.29653957     0.24700
C390        C  0.31728639  0.45716300  0.28543248    -0.23400
C391        C  0.32550124  0.47387585  0.25999909     0.19600
C392        C  0.30879904  0.47893372  0.24439883     0.24700
C393        C  0.28366715  0.46719880  0.25375047    -0.23300
C394        C  0.27596537  0.45230328  0.28056701     0.19600
F395        F  0.25184014  0.44131076  0.29039613    -0.13300
F396        F  0.28401856  0.43214165  0.32163631    -0.15600
F397        F  0.31672440  0.99376541  0.21879230    -0.15600
F398        F  0.34943946  0.98472078  0.24955616    -0.13300
C399        C  0.13377389  0.39511992  0.15373338     0.24700
C400        C  0.15291103  0.39885269  0.13320506    -0.23400
C401        C  0.14785626  0.38128212  0.10979157     0.19600
C402        C  0.12486490  0.35873775  0.10945336     0.24700
C403        C  0.10694037  0.35374495  0.13256766    -0.23300
C404        C  0.11093811  0.37265290  0.15349194     0.19600
F405        F  0.09376950  0.36827889  0.17584746    -0.13300
F406        F  0.13822683  0.41214255  0.17618605    -0.16500
F407        F  0.12161854  0.34051766  0.08948321    -0.15600
F408        F  0.16629670  0.38436458  0.09013907    -0.13300
C409        C  0.32230648  0.28408756  0.12598537     0.24700
C410        C  0.30596552  0.29136324  0.11338899    -0.23400
C411        C  0.31270590  0.30507870  0.08529041     0.19600
C412        C  0.33424146  0.30973849  0.06922965     0.24700
C413        C  0.34920607  0.30064009  0.08083269    -0.23300
C414        C  0.34354779  0.28851862  0.10968205     0.19600
F415        F  0.35802189  0.27984051  0.12137981    -0.13300
F416        F  0.31703324  0.27119662  0.15312870    -0.15600
F417        F  0.33926258  0.32122578  0.04108360    -0.15600
F418        F  0.29791336  0.31296160  0.07247967    -0.13300
C419        C  0.18915758  0.16516499  0.07167869     0.24700
C420        C  0.19990453  0.15125697  0.08182231    -0.23400
C421        C  0.21388388  0.15809099  0.10936727     0.19600
C422        C  0.21848008  0.17937523  0.12556035     0.24700
C423        C  0.20957046  0.19472110  0.11419106    -0.23300
C424        C  0.19395309  0.18676483  0.08769044     0.19600
F425        F  0.18410002  0.20034303  0.07652628    -0.13300
F426        F  0.17576331  0.15904250  0.04490290    -0.15600
F427        F  0.23314925  0.18572709  0.15125779    -0.15600
F428        F  0.22429540  0.14478599  0.11972171    -0.13300
C429        C  0.28995691  0.34642406  0.29284961     0.24700
C430        C  0.31541409  0.36054769  0.28448070    -0.23400
C431        C  0.32417479  0.35188384  0.26021194     0.19600
C432        C  0.30750257  0.33059307  0.24326445     0.24700
C433        C  0.28176346  0.31781223  0.25004985    -0.23300
C434        C  0.27332466  0.32537446  0.27571107     0.19600
F435        F  0.24865211  0.31292074  0.28342549    -0.13300
F436        F  0.28070236  0.35397454  0.31615570    -0.15600
F437        F  0.31625192  0.32366080  0.21876969    -0.15600
F438        F  0.34877077  0.36450861  0.25219162    -0.13300
C439        C  0.15465381  0.20794715  0.29230211     0.24700
C440        C  0.14161377  0.18242661  0.28442992    -0.23400
C441        C  0.15100687  0.17418329  0.26042030     0.19600
C442        C  0.17186974  0.19142997  0.24312650     0.24700
C443        C  0.18332858  0.21706284  0.24943031    -0.23300
C444        C  0.17518927  0.22504620  0.27485072     0.19600
F445        F  0.18633863  0.24973042  0.28174964    -0.13300
F446        F  0.14632153  0.21683500  0.31515637    -0.15600
F447        F  0.17949428  0.18331863  0.21865935    -0.15600
F448        F  0.13933700  0.14963083  0.25274553    -0.13300
C449        C  0.23699661  0.35853089  0.11103895     0.24700
C450        C  0.24701015  0.35162321  0.13580201    -0.23400
C451        C  0.26036087  0.36906666  0.15926204     0.19600
C452        C  0.26059408  0.39154788  0.16038039     0.24700
C453        C  0.24765954  0.39703999  0.13790333    -0.23300
C454        C  0.23729806  0.38121378  0.11209845     0.19600
F455        F  0.22477176  0.38614466  0.09000546    -0.13300
F456        F  0.22423965  0.34209602  0.08795153    -0.15600
F457        F  0.27154052  0.40694875  0.18497327    -0.15600
F458        F  0.27107842  0.36321250  0.18281884    -0.13300
C459        C  0.13015720  0.24041535  0.15169179     0.24700
C460        C  0.14967088  0.25527089  0.13102037    -0.23400
C461        C  0.14557030  0.26816441  0.10701785     0.19600
C462        C  0.12351058  0.26909304  0.10657684     0.24700
C463        C  0.10557698  0.25702630  0.13003671    -0.23300
C464        C  0.10816762  0.24122957  0.15112587     0.19600
F465        F  0.09052467  0.22872940  0.17330299    -0.13300
F466        F  0.13347112  0.22719556  0.17445186    -0.15600
F467        F  0.12125277  0.28439884  0.08596760    -0.15600
F468        F  0.16421141  0.28260521  0.08676925    -0.13300
Fe469      Fe  0.21419124  0.28429969  0.69279461     1.65800
Fe470      Fe  0.24679603  0.25447366  0.68406050     1.73200
Fe471      Fe  0.22759368  0.27341567  0.61949194     1.54400
O472        O  0.19018402  0.26278477  0.61914716    -0.80500
O473        O  0.27681053  0.27218572  0.65442889    -0.78800
O474        O  0.18196934  0.26943239  0.66720876    -0.83000
O475        O  0.23003136  0.31727053  0.66898006    -0.77900
O476        O  0.21659060  0.23614995  0.61289476    -0.79700
O477        O  0.26724657  0.28337411  0.71523820    -0.82400
C478        C  0.23828914  0.32510369  0.64192860     0.98300
C479        C  0.17537958  0.26244373  0.63953020     1.05800
O480        O  0.22952082  0.27068936  0.66536902    -1.11400
O481        O  0.21876076  0.23401660  0.71620812    -0.73800
O482        O  0.19686522  0.25314403  0.71994461    -0.77300
O483        O  0.23837959  0.31107923  0.62065882    -0.78000
C484        C  0.20084281  0.23579576  0.72728441     0.97300
O485        O  0.24417924  0.30092430  0.72230637    -0.76000
O486        O  0.22883564  0.22414446  0.65485390    -0.81200
C487        C  0.28114205  0.28251229  0.62795338     0.99900
C488        C  0.21849223  0.21970955  0.62830429     1.05800
O489        O  0.26469061  0.28450983  0.61289465    -0.76800
C490        C  0.26330647  0.29935861  0.72811944     1.04100
Fe491      Fe  0.21680794  0.43210191  0.69595468     1.65800
Fe492      Fe  0.24922295  0.99555225  0.68858490     1.73200
Fe493      Fe  0.23197651  0.45822011  0.62331501     1.54400
O494        O  0.24088502  0.43026841  0.62429782    -0.80500
O495        O  0.23323109  0.00883231  0.65831995    -0.78800
O496        O  0.23264126  0.41512137  0.67247040    -0.83000
O497        O  0.18519325  0.41518987  0.66929363    -0.77900
O498        O  0.26977841  0.48389358  0.61934532    -0.79700
O499        O  0.21935233  0.48657236  0.71835703    -0.82400
C500        C  0.17891522  0.41673051  0.64176991     0.98300
C501        C  0.24035361  0.41556930  0.64518515     1.05800
O502        O  0.23264383  0.46194569  0.66918778    -1.11400
O503        O  0.26814677  0.98686193  0.72107052    -0.73800
O504        O  0.24638212  0.44536593  0.72592230    -0.77300
O505        O  0.19408102  0.43193649  0.62180605    -0.78000
C506        C  0.26478968  0.46659492  0.73269086     0.97300
O507        O  0.19900687  0.44516359  0.72288258    -0.76000
O508        O  0.28049167  0.00849530  0.66088532    -0.81200
C509        C  0.22439483  0.00368295  0.63108512     0.99900
C510        C  0.28577807  0.00241495  0.63517851     1.05800
O511        O  0.22282323  0.48551820  0.61562643    -0.76800
C512        C  0.20161584  0.46616960  0.72920286     1.04100
Fe513      Fe  0.07304371  0.28794558  0.69185959     1.65800
Fe514      Fe  0.50968954  0.25369124  0.68545490     1.73200
Fe515      Fe  0.04627073  0.27549629  0.61959516     1.54400
O516        O  0.07381656  0.31303017  0.61975536    -0.80500
O517        O  0.49860310  0.22358040  0.65704836    -0.78800
O518        O  0.08893199  0.32088421  0.66790375    -0.83000
O519        O  0.09045981  0.27429866  0.66513835    -0.77900
O520        O  0.01972050  0.28608191  0.61556787    -0.79700
O521        O  0.02003889  0.23516426  0.71713869    -0.82400
C522        C  0.08844771  0.26579056  0.63798444     0.98300
C523        C  0.08836746  0.32775344  0.64040969     1.05800
O524        O  0.04298043  0.27244233  0.66555456    -1.11400
O525        O  0.01729355  0.28238837  0.71593436    -0.73800
O526        O  0.05877034  0.30304874  0.72166976    -0.77300
O527        O  0.07298032  0.26502308  0.61810927    -0.78000
C528        C  0.03735759  0.29977685  0.72782418     0.97300
O529        O  0.06154039  0.25718750  0.71930951    -0.76000
O530        O  0.49423633  0.26853627  0.65601002    -0.81200
C531        C  0.50314768  0.22060279  0.62927107     0.99900
C532        C  0.49995527  0.28059289  0.63056321     1.05800
O533        O  0.01956150  0.23834516  0.61274398    -0.76800
C534        C  0.04078626  0.23847785  0.72701232     1.04100
Fe535      Fe  0.23708067  0.12073837  0.52767662     1.65800
Fe536      Fe  0.17370002  0.08533628  0.52056919     1.73200
Fe537      Fe  0.21117400  0.10427387  0.95520286     1.54400
O538        O  0.23828983  0.14197651  0.95308986    -0.80500
O539        O  0.16136426  0.05425439  0.99286525    -0.78800
O540        O  0.25253269  0.15247278  0.50134060    -0.83000
O541        O  0.25539974  0.10652761  0.50396589    -0.77900
O542        O  0.18425542  0.11418493  0.94841820    -0.79700
O543        O  0.18403677  0.06732871  0.55281967    -0.82400
C544        C  0.25399013  0.09661584  0.97792365     0.98300
C545        C  0.25208549  0.15796059  0.97316488     1.05800
O546        O  0.20724968  0.10340856  0.50104619    -1.11400
O547        O  0.18109259  0.11457324  0.55048119    -0.73800
O548        O  0.22256457  0.13695451  0.55490921    -0.77300
O549        O  0.23842476  0.09421738  0.95704126    -0.78000
C550        C  0.20098949  0.13298534  0.56127246     0.97300
O551        O  0.22540995  0.09122574  0.55737089    -0.76000
O552        O  0.15942705  0.10040426  0.99010636    -0.81200
C553        C  0.16661264  0.05016222  0.96591528     0.99900
C554        C  0.16513916  0.11071399  0.96353407     1.05800
O555        O  0.18463957  0.06689559  0.95008185    -0.76800
C556        C  0.20482855  0.07186214  0.56416876     1.04100
Fe557      Fe  0.38467632  0.11890861  0.53096006     1.65800
Fe558      Fe  0.41552153  0.08756416  0.51996317     1.73200
Fe559      Fe  0.39475758  0.10637904  0.95684153     1.54400
O560        O  0.35677401  0.09402130  0.95958314    -0.80500
O561        O  0.44382121  0.10413958  0.98827848    -0.78800
O562        O  0.35144283  0.10401877  0.50743138    -0.83000
O563        O  0.39959137  0.15160353  0.50647608    -0.77900
O564        O  0.38538855  0.06955686  0.94962836    -0.79700
O565        O  0.43791825  0.11681486  0.54940081    -0.82400
C566        C  0.40484835  0.15822923  0.97838023     0.98300
C567        C  0.34320732  0.09522965  0.98072251     1.05800
O568        O  0.39825983  0.10421771  0.50249655    -1.11400
O569        O  0.38897325  0.06821344  0.55400290    -0.73800
O570        O  0.36816564  0.08831611  0.55930764    -0.77300
O571        O  0.40343443  0.14340960  0.95727456    -0.78000
C572        C  0.37184086  0.07069346  0.56623001     0.97300
O573        O  0.41607049  0.13551187  0.55790674    -0.76000
O574        O  0.39603581  0.05673544  0.99222044    -0.81200
C575        C  0.44834565  0.11554232  0.96254629     0.99900
C576        C  0.38675003  0.05285578  0.96515482     1.05800
O577        O  0.43242066  0.11922387  0.94864502    -0.76800
C578        C  0.43506186  0.13342705  0.56230773     1.04100
Fe579      Fe  0.37931157  0.26316832  0.52672197     1.65800
Fe580      Fe  0.41438530  0.32627730  0.51957716     1.73200
Fe581      Fe  0.39446871  0.28933768  0.95430667     1.54400
O582        O  0.40579037  0.26322334  0.95488929    -0.80500
O583        O  0.40072689  0.34143320  0.98811578    -0.78800
O584        O  0.39167417  0.24421185  0.50062925    -0.83000
O585        O  0.34650887  0.24870378  0.50232853    -0.77900
O586        O  0.43164200  0.31681294  0.94848903    -0.79700
O587        O  0.38460754  0.31923408  0.54778806    -0.82400
C588        C  0.34102284  0.24808090  0.97389669     0.98300
C589        C  0.40221745  0.24654154  0.97466951     1.05800
O590        O  0.39611338  0.29295682  0.50012911    -1.11400
O591        O  0.43126387  0.31572148  0.55339947    -0.73800
O592        O  0.41014476  0.27419022  0.55410406    -0.77300
O593        O  0.35707573  0.26114663  0.95333953    -0.78000
C594        C  0.42823904  0.29500235  0.56289804     0.97300
O595        O  0.36491785  0.27822679  0.55640843    -0.76000
O596        O  0.44573411  0.33721243  0.99313019    -0.81200
C597        C  0.38847605  0.33505050  0.96286881     0.99900
C598        C  0.44912841  0.33310275  0.96533476     1.05800
O599        O  0.38296036  0.31501288  0.94874111    -0.76800
C600        C  0.36759565  0.29953434  0.56073462     1.04100
Fe601      Fe  0.40437270  0.45408203  0.85946575     1.65800
Fe602      Fe  0.34084976  0.42039407  0.85404053     1.73200
Fe603      Fe  0.37728422  0.43912789  0.78783756     1.54400
O604        O  0.40599411  0.47627175  0.78626895    -0.80500
O605        O  0.32763601  0.38911126  0.82639735    -0.78800
O606        O  0.41905279  0.48666087  0.83496884    -0.83000
O607        O  0.42250303  0.44093663  0.83293810    -0.77900
O608        O  0.35221420  0.45140812  0.78321167    -0.79700
O609        O  0.35111108  0.40210783  0.88619627    -0.82400
C610        C  0.41957362  0.43019126  0.80709497     0.98300
C611        C  0.41930597  0.49222037  0.80666409     1.05800
O612        O  0.37409111  0.43774110  0.83372278    -1.11400
O613        O  0.34932348  0.44987958  0.88387762    -0.73800
O614        O  0.39060004  0.46936418  0.88972376    -0.77300
O615        O  0.40276576  0.42697377  0.78773496    -0.78000
C616        C  0.36955379  0.46688028  0.89587429     0.97300
O617        O  0.39282454  0.42336301  0.88676557    -0.76000
O618        O  0.32685453  0.43621220  0.82417855    -0.81200
C619        C  0.33193926  0.38532866  0.79879608     0.99900
C620        C  0.33327119  0.44801598  0.79856507     1.05800
O621        O  0.34920524  0.40230919  0.78230597    -0.76800
C622        C  0.37196748  0.40517699  0.89541392     1.04100
Fe623      Fe  0.04699345  0.44902403  0.86068431     1.65800
Fe624      Fe  0.08002420  0.41992632  0.85177352     1.73200
Fe625      Fe  0.05973361  0.43766315  0.78767907     1.54400
O626        O  0.02291030  0.43007046  0.78885219    -0.80500
O627        O  0.11099241  0.44042539  0.82439074    -0.78800
O628        O  0.01310239  0.42947618  0.83864108    -0.83000
O629        O  0.05794271  0.47982873  0.83336610    -0.77900
O630        O  0.04611622  0.39974379  0.78228524    -0.79700
O631        O  0.09796511  0.44727731  0.88542719    -0.82400
C632        C  0.06919018  0.48858768  0.80785485     0.98300
C633        C  0.00721198  0.42625311  0.81017416     1.05800
O634        O  0.06233804  0.43557019  0.83330237    -1.11400
O635        O  0.05060422  0.39709432  0.88100349    -0.73800
O636        O  0.03408772  0.42045673  0.89213278    -0.77300
O637        O  0.07320541  0.47576456  0.78844967    -0.78000
C638        C  0.03547444  0.40107245  0.89602190     0.97300
O639        O  0.07921978  0.46972104  0.88560301    -0.76000
O640        O  0.06497317  0.39115594  0.82027990    -0.81200
C641        C  0.11390545  0.44722509  0.79619218     0.99900
C642        C  0.05183207  0.38508986  0.79574280     1.05800
O643        O  0.09625159  0.44596555  0.77977285    -0.76800
C644        C  0.09638148  0.46580808  0.89446491     1.04100
Fe645      Fe  0.04676594  0.09563561  0.85981992     1.65800
Fe646      Fe  0.08126650  0.15889333  0.85278982     1.73200
Fe647      Fe  0.06275883  0.12170788  0.78734538     1.54400
O648        O  0.07150353  0.09361336  0.78859468    -0.80500
O649        O  0.06577790  0.17303411  0.82256332    -0.78800
O650        O  0.06140774  0.07768365  0.83632216    -0.83000
O651        O  0.01506671  0.07974645  0.83347792    -0.77900
O652        O  0.10051885  0.14726029  0.78268310    -0.79700
O653        O  0.05223198  0.15123861  0.88318840    -0.82400
C654        C  0.00914006  0.08107021  0.80574185     0.98300
C655        C  0.06999003  0.07845921  0.80949886     1.05800
O656        O  0.06362026  0.12547307  0.83320916    -1.11400
O657        O  0.09978800  0.14896383  0.88489052    -0.73800
O658        O  0.07629007  0.10768807  0.88957152    -0.77300
O659        O  0.02474489  0.09563967  0.78568805    -0.78000
C660        C  0.09550435  0.12832340  0.89639325     0.97300
O661        O  0.03013767  0.10982419  0.88659503    -0.76000
O662        O  0.11206099  0.17127803  0.82473100    -0.81200
C663        C  0.05664320  0.16796007  0.79537035     0.99900
C664        C  0.11675815  0.16561812  0.79841790     1.05800
O665        O  0.05404605  0.14936192  0.78009802    -0.76800
C666        C  0.03389733  0.13113603  0.89365694     1.04100
C667        C  0.08974356  0.05446049  0.82640414     0.24700
C668        C  0.07746527  0.05997982  0.80301451    -0.23400
C669        C  0.06785616  0.04423909  0.77704650     0.19600
C670        C  0.06784074  0.02169466  0.77642247     0.24700
C671        C  0.07753268  0.01496688  0.80169245    -0.23300
C672        C  0.08983973  0.03216858  0.82567339     0.19600
F673        F  0.09967382  0.02613772  0.85008702    -0.13300
F674        F  0.09960725  0.06957523  0.85147601    -0.15600
F675        F  0.05592416  0.50531104  0.75304287    -0.15600
F676        F  0.05576406  0.04911151  0.75430106    -0.13300
C677        C  0.44132627  0.03743341  0.81809250     0.24700
C678        C  0.43738568  0.01816272  0.79779565    -0.23400
C679        C  0.45487108  0.02310405  0.77410937     0.19600
C680        C  0.47773432  0.04579244  0.77378682     0.24700
C681        C  0.48303262  0.06354354  0.79705242    -0.23300
C682        C  0.46403476  0.06001113  0.81770575     0.19600
F683        F  0.46861197  0.07727182  0.83987983    -0.13300
F684        F  0.42432334  0.03334208  0.84056790    -0.15600
F685        F  0.99593336  0.04880344  0.75378220    -0.15600
F686        F  0.45131545  0.50486160  0.75404155    -0.13300
C687        C  0.43967564  0.40610401  0.82157039     0.24700
C688        C  0.43719536  0.42174653  0.80011542    -0.23400
C689        C  0.45556955  0.43402637  0.77719978     0.19600
C690        C  0.47762812  0.43306168  0.77809293     0.24700
C691        C  0.48147575  0.41992563  0.80208821    -0.23300
C692        C  0.46164125  0.40514203  0.82253955     0.19600
F693        F  0.46438247  0.39144544  0.84516013    -0.13300
F694        F  0.42175096  0.39359079  0.84343926    -0.15600
F695        F  0.99640068  0.44753941  0.75802275    -0.15600
F696        F  0.45357275  0.44940363  0.75644844    -0.13300
C697        C  0.36106522  0.34394036  0.92825153     0.24700
C698        C  0.38153071  0.35244887  0.94876883    -0.23400
C699        C  0.39660858  0.37827927  0.95425634     0.19600
C700        C  0.39232933  0.39522587  0.93823056     0.24700
C701        C  0.37279789  0.38685585  0.91646933    -0.23300
C702        C  0.35666344  0.36103962  0.91231906     0.19600
F703        F  0.33773989  0.35241816  0.89131219    -0.13300
F704        F  0.34566973  0.31913715  0.92305681    -0.15600
F705        F  0.40801937  0.42004743  0.94314146    -0.15600
F706        F  0.41661891  0.38741971  0.97366796    -0.13300
C707        C  0.50390984  0.35693464  0.90987790     0.24700
C708        C  0.01756006  0.38231794  0.91798493    -0.23400
C709        C  0.01067568  0.39039372  0.94455439     0.19600
C710        C  0.48924750  0.37389934  0.96118859     0.24700
C711        C  0.47417464  0.34897605  0.95143925    -0.23300
C712        C  0.48223670  0.34038620  0.92638438     0.19600
F713        F  0.46857207  0.31624228  0.91703583    -0.13300
F714        F  0.51023742  0.34862493  0.88440247    -0.15600
F715        F  0.98213783  0.38302231  0.98512151    -0.15600
F716        F  0.02392393  0.41472585  0.95334354    -0.13300
C717        C  0.48433123  0.10919821  0.95464694     0.24700
C718        C  0.47271399  0.12306350  0.94777176    -0.23400
C719        C  0.48389202  0.14252745  0.92567669     0.19600
C720        C  0.50534988  0.14683459  0.90940169     0.24700
C721        C  0.01557817  0.13156539  0.91488335    -0.23300
C722        C  0.00545751  0.11348666  0.93849629     0.19600
F723        F  0.01534569  0.09889345  0.94496349    -0.13300
F724        F  0.47433619  0.09016383  0.97560371    -0.15600
F725        F  0.51504062  0.16471317  0.88696762    -0.15600
F726        F  0.47379447  0.15693833  0.91936300    -0.13300
C727        C  0.35615034  0.49745769  0.91002589     0.24700
C728        C  0.36948385  0.48538065  0.91721012    -0.23400
C729        C  0.38600410  0.49381780  0.94258421     0.19600
C730        C  0.39061755  0.01499342  0.95907641     0.24700
C731        C  0.37870074  0.02828475  0.95058573    -0.23300
C732        C  0.36083309  0.01881526  0.92648305     0.19600
F733        F  0.34836646  0.03062589  0.91825728    -0.13300
F734        F  0.34003099  0.48971524  0.88566312    -0.15600
F735        F  0.40799990  0.02331995  0.98208204    -0.15600
F736        F  0.39875858  0.48222432  0.95051871    -0.13300
C737        C  0.42505564  0.20307006  0.99229939     0.24700
C738        C  0.41140029  0.18401018  0.97064224    -0.23400
C739        C  0.39973226  0.18870903  0.94559503     0.19600
C740        C  0.39917398  0.21096592  0.94451636     0.24700
C741        C  0.41032277  0.22857172  0.96839848    -0.23300
C742        C  0.42450510  0.22515128  0.99116196     0.19600
F743        F  0.43586747  0.24225238  0.01407447    -0.13300
F744        F  0.43710805  0.19938769  0.01623424    -0.15600
F745        F  0.38530543  0.21393488  0.92236574    -0.15600
F746        F  0.38635877  0.17064100  0.92438553    -0.13300
C747        C  0.12221316  0.10403549  0.95617271     0.24700
C748        C  0.14798490  0.11788928  0.94922563    -0.23400
C749        C  0.15665366  0.13748067  0.92738504     0.19600
C750        C  0.13972645  0.14229551  0.91173016     0.24700
C751        C  0.11385494  0.12741772  0.91743830    -0.23300
C752        C  0.10539118  0.10875859  0.94047365     0.19600
F753        F  0.08057429  0.09433343  0.94699058    -0.13300
F754        F  0.11294307  0.08473925  0.97674667    -0.15600
F755        F  0.14848580  0.16032152  0.88947704    -0.15600
F756        F  0.18143625  0.15160648  0.92065362    -0.13300
C757        C  0.15799586  0.01763114  0.92541170     0.24700
C758        C  0.14993324  0.02548264  0.95131304    -0.23400
C759        C  0.12464839  0.01103560  0.96056724     0.19600
C760        C  0.10740267  0.49069532  0.94282452     0.24700
C761        C  0.11523486  0.48396820  0.91598801    -0.23300
C762        C  0.14080123  0.99696895  0.90794196     0.19600
F763        F  0.14871256  0.99082458  0.88192405    -0.13300
F764        F  0.18231689  0.03052062  0.91621102    -0.15600
F765        F  0.08285530  0.47812789  0.95111193    -0.15600
F766        F  0.11583856  0.51757734  0.98551466    -0.13300
C767        C  0.27279354  0.20314885  0.48397158     0.24700
C768        C  0.26974967  0.18398390  0.96409858    -0.23400
C769        C  0.28798577  0.18918953  0.94137029     0.19600
C770        C  0.31066617  0.21207929  0.94174160     0.24700
C771        C  0.31512040  0.22974239  0.96488356    -0.23300
C772        C  0.29539306  0.22587490  0.48445291     0.19600
F773        F  0.29894499  0.24308556  0.50622140    -0.13300
F774        F  0.25491374  0.19879926  0.50528625    -0.15600
F775        F  0.32940941  0.21544644  0.92245173    -0.15600
F776        F  0.28536561  0.17098590  0.92179270    -0.13300
C777        C  0.28873259  0.09784675  0.94736473     0.24700
C778        C  0.27208108  0.08838977  0.97256828    -0.23400
C779        C  0.27656438  0.07588242  0.49670732     0.19600
C780        C  0.29888291  0.07563425  0.49761607     0.24700
C781        C  0.31697318  0.08771020  0.97423899    -0.23300
C782        C  0.31111172  0.09744846  0.94815837     0.19600
F783        F  0.32835219  0.10938208  0.92543196    -0.13300
F784        F  0.28488331  0.11018554  0.92396694    -0.15600
F785        F  0.30382278  0.06555320  0.52272363    -0.15600
F786        F  0.26033330  0.06591985  0.52089193    -0.13300
C787        C  0.43876231  0.27513563  0.60616610     0.24700
C788        C  0.44674012  0.29452302  0.58420801    -0.23400
C789        C  0.47257690  0.31127656  0.58032293     0.19600
C790        C  0.49007346  0.30750475  0.59638714     0.24700
C791        C  0.48201945  0.28715872  0.61700544    -0.23300
C792        C  0.45614936  0.27157457  0.62250686     0.19600
F793        F  0.44746036  0.25174226  0.64216831    -0.13300
F794        F  0.41395929  0.25900140  0.61109195    -0.15600
F795        F  0.01487121  0.32336547  0.59114064    -0.15600
F796        F  0.48092063  0.33027344  0.55942588    -0.13300
C797        C  0.47942190  0.16634628  0.57324375     0.24700
C798        C  0.45441280  0.15180373  0.58303865    -0.23400
C799        C  0.44680152  0.15803487  0.61044497     0.19600
C800        C  0.46316595  0.17970214  0.62640652     0.24700
C801        C  0.48761507  0.19566578  0.61522277    -0.23300
C802        C  0.49595139  0.18828595  0.58917533     0.19600
F803        F  0.01975712  0.20272622  0.57848757    -0.13300
F804        F  0.48724848  0.16046897  0.54693842    -0.15600
F805        F  0.45426314  0.18597965  0.65136908    -0.15600
F806        F  0.42286166  0.14382425  0.62073641    -0.13300
C807        C  0.05299669  0.32683148  0.77428895     0.24700
C808        C  0.03653229  0.31786422  0.74896427    -0.23400
C809        C  0.02237746  0.32901771  0.74159973     0.19600
C810        C  0.02629681  0.35024443  0.75772831     0.24700
C811        C  0.04427454  0.36043455  0.78170240    -0.23300
C812        C  0.05673481  0.34770802  0.79060607     0.19600
F813        F  0.07385950  0.35625040  0.81390699    -0.13300
F814        F  0.56638398  0.31593759  0.78247260    -0.15600
F815        F  0.01314532  0.36125627  0.74909740    -0.15600
F816        F  0.00617835  0.32056080  0.71730929    -0.13300
C817        C  0.02699265  0.19411124  0.74120678     0.24700
C818        C  0.04153600  0.21980484  0.74761253    -0.23400
C819        C  0.05951049  0.22791785  0.77140777     0.19600
C820        C  0.06358816  0.21089178  0.78771481     0.24700
C821        C  0.04995538  0.18528125  0.78038464    -0.23300
C822        C  0.03131926  0.17699796  0.75726739     0.19600
F823        F  0.01765756  0.15242429  0.74973684    -0.13300
F824        F  0.50982402  0.18576167  0.71793132    -0.15600
F825        F  0.08207755  0.21980677  0.80935818    -0.15600
F826        F  0.07377523  0.25259192  0.77826773    -0.13300
C827        C  0.19814738  0.01147793  0.59322174     0.24700
C828        C  0.21668303  0.02027914  0.61646233    -0.23400
C829        C  0.22887348  0.04568873  0.62477509     0.19600
C830        C  0.22359848  0.06212543  0.60913827     0.24700
C831        C  0.20597467  0.05358603  0.58493540    -0.23300
C832        C  0.19272484  0.02799846  0.57771001     0.19600
F833        F  0.17584395  0.01929331  0.55414764    -0.13300
F834        F  0.18566551  0.98701616  0.58503010    -0.15600
F835        F  0.23648622  0.08669930  0.61688498    -0.15600
F836        F  0.24712632  0.05507733  0.64673650    -0.13300
C837        C  0.34170869  0.02658524  0.58136465     0.24700
C838        C  0.35447710  0.05209573  0.58865889    -0.23400
C839        C  0.34721762  0.06020568  0.61478876     0.19600
C840        C  0.32594537  0.04354424  0.63158050     0.24700
C841        C  0.31127758  0.01843099  0.62218664    -0.23300
C842        C  0.32012771  0.00984081  0.59788867     0.19600
F843        F  0.30742415  0.48546734  0.58929272    -0.13300
F844        F  0.34872810  0.01827757  0.55650059    -0.15600
F845        F  0.31869033  0.05262438  0.65538373    -0.15600
F846        F  0.35992161  0.08470145  0.62290587    -0.13300
C847        C  0.15271262  0.44491906  0.79148919     0.24700
C848        C  0.13857071  0.45558329  0.78164140    -0.23400
C849        C  0.14751129  0.47271513  0.75669199     0.19600
C850        C  0.16950362  0.47804722  0.74098274     0.24700
C851        C  0.18251582  0.46595614  0.74967295    -0.23300
C852        C  0.17434017  0.44998700  0.77560354     0.19600
F853        F  0.18678638  0.43834959  0.78476054    -0.13300
F854        F  0.14468401  0.42809644  0.81516613    -0.15600
F855        F  0.17704073  0.49358497  0.71599709    -0.15600
F856        F  0.13466237  0.48379891  0.74704329    -0.13300
C857        C  0.29262021  0.44751916  0.79654834     0.24700
C858        C  0.31725689  0.45713523  0.78544118    -0.23400
C859        C  0.32547339  0.47384929  0.76000904     0.19600
C860        C  0.30877410  0.47891244  0.74441176     0.24700
C861        C  0.28364271  0.46718027  0.75376300    -0.23300
C862        C  0.27593819  0.45228193  0.78057733     0.19600
F863        F  0.25181275  0.44129150  0.79040531    -0.13300
F864        F  0.28398749  0.43211394  0.82164341    -0.15600
F865        F  0.31671352  0.99371656  0.71873370    -0.15600
F866        F  0.34943143  0.98467387  0.74949397    -0.13300
C867        C  0.13376678  0.39513536  0.65371840     0.24700
C868        C  0.15290508  0.39886560  0.63319325    -0.23400
C869        C  0.14785075  0.38129401  0.60978165     0.19600
C870        C  0.12486016  0.35874959  0.60944522     0.24700
C871        C  0.10693647  0.35375737  0.63255996    -0.23300
C872        C  0.11093191  0.37266710  0.65348001     0.19600
F873        F  0.09376315  0.36829379  0.67583509    -0.13300
F874        F  0.13821863  0.41216073  0.67616699    -0.16500
F875        F  0.12161502  0.34052783  0.58947881    -0.15600
F876        F  0.16629186  0.38437423  0.59013197    -0.13300
C877        C  0.32228155  0.28402310  0.62599680     0.24700
C878        C  0.30597021  0.29135033  0.61343781    -0.23400
C879        C  0.31274165  0.30512145  0.58538168     0.19600
C880        C  0.33427640  0.30978336  0.56931631     0.24700
C881        C  0.34920766  0.30063045  0.58087300    -0.23300
C882        C  0.34352145  0.28845646  0.60968926     0.19600
F883        F  0.35796499  0.27972846  0.62134667    -0.13300
F884        F  0.31697727  0.27107782  0.65310082    -0.15600
F885        F  0.33932786  0.32132886  0.54120698    -0.15600
F886        F  0.29798058  0.31306075  0.57261689    -0.13300
C887        C  0.18913695  0.16514970  0.57169849     0.24700
C888        C  0.19989510  0.15124748  0.58182601    -0.23400
C889        C  0.21388252  0.15808287  0.60936454     0.19600
C890        C  0.21847897  0.17936460  0.62556404     0.24700
C891        C  0.20956072  0.19470679  0.61420798    -0.23300
C892        C  0.19393240  0.18674716  0.58771752     0.19600
F893        F  0.18406674  0.20031928  0.57657135    -0.13300
F894        F  0.17573052  0.15902379  0.54493225    -0.15600
F895        F  0.23315703  0.18571862  0.65125322    -0.15600
F896        F  0.22430168  0.14478158  0.61970646    -0.13300
C897        C  0.28995093  0.34639820  0.79287970     0.24700
C898        C  0.31540663  0.36052738  0.78450591    -0.23400
C899        C  0.32416793  0.35186850  0.76023181     0.19600
C900        C  0.30749691  0.33057750  0.74328398     0.24700
C901        C  0.28175885  0.31779126  0.75007514    -0.23300
C902        C  0.27332006  0.32534804  0.77574122     0.19600
F903        F  0.24864817  0.31288927  0.78345893    -0.13300
F904        F  0.28069557  0.35394448  0.81618941    -0.15600
F905        F  0.31624542  0.32365122  0.71878241    -0.15600
F906        F  0.34876254  0.36449934  0.75220510    -0.13300
C907        C  0.15462322  0.20794660  0.79230352     0.24700
C908        C  0.14160597  0.18242087  0.78445966    -0.23400
C909        C  0.15101820  0.17417366  0.76047802     0.19600
C910        C  0.17188067  0.19142032  0.74318301     0.24700
C911        C  0.18331716  0.21705658  0.74945631    -0.23300
C912        C  0.17515736  0.22504505  0.77485153     0.19600
F913        F  0.18628522  0.24973214  0.78172486    -0.13300
F914        F  0.14626780  0.21683746  0.81512720    -0.15600
F915        F  0.17952746  0.18330293  0.71874447    -0.15600
F916        F  0.13936834  0.14961619  0.75283322    -0.13300
C917        C  0.23698444  0.35851388  0.61105578     0.24700
C918        C  0.24700675  0.35161397  0.63581693    -0.23400
C919        C  0.26035779  0.36906218  0.65927230     0.19600
C920        C  0.26058592  0.39154135  0.66038653     0.24700
C921        C  0.24764644  0.39702727  0.63790956    -0.23300
C922        C  0.23728090  0.38119462  0.61211105     0.19600
F923        F  0.22474683  0.38611760  0.59002073    -0.13300
F924        F  0.22422427  0.34207325  0.58797476    -0.15600
F925        F  0.27153391  0.40694717  0.68497482    -0.15600
F926        F  0.27108214  0.36321515  0.68282796    -0.13300
C927        C  0.13015820  0.24041254  0.65167375     0.24700
C928        C  0.14968278  0.25527919  0.63102121    -0.23400
C929        C  0.14559794  0.26819182  0.60702904     0.19600
C930        C  0.12354090  0.26912474  0.60658059     0.24700
C931        C  0.10559409  0.25704290  0.63002226    -0.23300
C932        C  0.10817049  0.24123019  0.65109922     0.19600
F933        F  0.09051501  0.22871740  0.67325898    -0.13300
F934        F  0.13345850  0.22717696  0.67442471    -0.15600
F935        F  0.12129754  0.28444783  0.58598547    -0.15600
F936        F  0.16425149  0.28264624  0.58680165    -0.13300
Fe937      Fe  0.21416257  0.78425249  0.19281842     1.65800
Fe938      Fe  0.24680496  0.75447490  0.18401255     1.73200
Fe939      Fe  0.22757958  0.77344688  0.11949282     1.54400
O940        O  0.19012583  0.76261251  0.11915390    -0.80500
O941        O  0.27676874  0.77211810  0.15425751    -0.78800
O942        O  0.18199658  0.76950368  0.16714179    -0.83000
O943        O  0.23009080  0.81728459  0.16915204    -0.77900
O944        O  0.21677370  0.73623421  0.11279624    -0.79700
O945        O  0.26732262  0.78343078  0.21510953    -0.82400
C946        C  0.23820947  0.82511223  0.14205654     0.98300
C947        C  0.17536127  0.76237888  0.13951218     1.05800
O948        O  0.22950709  0.77068040  0.16535940    -1.11400
O949        O  0.21882254  0.73406693  0.21627295    -0.73800
O950        O  0.19674976  0.75302367  0.21981537    -0.77300
O951        O  0.23817622  0.81107266  0.12071625    -0.78000
C952        C  0.20081939  0.73575457  0.22724872     0.97300
O953        O  0.24408965  0.80076501  0.22243506    -0.76000
O954        O  0.22877298  0.72410912  0.15487147    -0.81200
C955        C  0.28113294  0.78259874  0.12787290     0.99900
C956        C  0.21857141  0.71974459  0.12823615     1.05800
O957        O  0.26471317  0.78473057  0.11293696    -0.76800
C958        C  0.26329670  0.79931092  0.22813011     1.04100
Fe959      Fe  0.21680432  0.93223956  0.19607607     1.65800
Fe960      Fe  0.24914778  0.49543147  0.18854504     1.73200
Fe961      Fe  0.23193916  0.95828880  0.12340745     1.54400
O962        O  0.24085513  0.93033907  0.12440661    -0.80500
O963        O  0.23309898  0.50867215  0.15833424    -0.78800
O964        O  0.23252865  0.91516914  0.17256523    -0.83000
O965        O  0.18513950  0.91535547  0.16949671    -0.77900
O966        O  0.26973814  0.98396694  0.11935322    -0.79700
O967        O  0.21947840  0.98679041  0.21843228    -0.82400
C968        C  0.17885684  0.91684069  0.14195561     0.98300
C969        C  0.24026950  0.91561535  0.14529751     1.05800
O970        O  0.23265993  0.96206085  0.16927452    -1.11400
O971        O  0.26811359  0.48677616  0.22098314    -0.73800
O972        O  0.24642575  0.94547732  0.22596070    -0.77300
O973        O  0.19403437  0.93199303  0.12195607    -0.78000
C974        C  0.26485172  0.96669462  0.23273144     0.97300
O975        O  0.19911001  0.94538746  0.22304120    -0.76000
O976        O  0.28042524  0.50845231  0.16083079    -0.81200
C977        C  0.22435570  0.50358135  0.13105647     0.99900
C978        C  0.28577166  0.50236157  0.13517014     1.05800
O979        O  0.22278186  0.98558322  0.11572832    -0.76800
C980        C  0.20174951  0.96640943  0.22933235     1.04100
Fe981      Fe  0.07304546  0.78793962  0.19185642     1.65800
Fe982      Fe  0.50970917  0.75367389  0.18540105     1.73200
Fe983      Fe  0.04631612  0.77548565  0.11954946     1.54400
O984        O  0.07377183  0.81306830  0.11971956    -0.80500
O985        O  0.49866077  0.72356229  0.15700719    -0.78800
O986        O  0.08900519  0.82083320  0.16780959    -0.83000
O987        O  0.09040919  0.77417841  0.16525541    -0.77900
O988        O  0.01967893  0.78594820  0.11543136    -0.79700
O989        O  0.02002458  0.73514482  0.21709523    -0.82400
C990        C  0.08847502  0.76576390  0.13806264     0.98300
C991        C  0.08837306  0.82775755  0.14036783     1.05800
O992        O  0.04299876  0.77243338  0.16551306    -1.11400
O993        O  0.01729219  0.78238951  0.21583770    -0.73800
O994        O  0.05878158  0.80314050  0.22152195    -0.77300
O995        O  0.07311003  0.76512352  0.11812105    -0.78000
C996        C  0.03735412  0.79983666  0.22766092     0.97300
O997        O  0.06151011  0.75724382  0.21944063    -0.76000
O998        O  0.49423189  0.76846841  0.15592740    -0.81200
C999        C  0.50323660  0.72056772  0.12924881     0.99900
C1000       C  0.49992278  0.78047387  0.13044721     1.05800
O1001       O  0.01968524  0.73829217  0.11271666    -0.76800
C1002       C  0.04076004  0.73850169  0.22707676     1.04100
Fe1003     Fe  0.23705421  0.62059531  0.02767482     1.65800
Fe1004     Fe  0.17366436  0.58526089  0.02063120     1.73200
Fe1005     Fe  0.21109185  0.60412853  0.45520793     1.54400
O1006       O  0.23824851  0.64181987  0.45306605    -0.80500
O1007       O  0.16130524  0.55414117  0.49298350    -0.78800
O1008       O  0.25249986  0.65232678  0.00133474    -0.83000
O1009       O  0.25534262  0.60637132  0.00392933    -0.77900
O1010       O  0.18420119  0.61408283  0.44843138    -0.79700
O1011       O  0.18399056  0.56728966  0.05294827    -0.82400
C1012       C  0.25387611  0.59641114  0.47789004     0.98300
C1013       C  0.25205391  0.65780534  0.47313597     1.05800
O1014       O  0.20720454  0.60328470  0.00107513    -1.11400
O1015       O  0.18110650  0.61457373  0.05043603    -0.73800
O1016       O  0.22257826  0.63683209  0.05494767    -0.77300
O1017       O  0.23830278  0.59401279  0.45701952    -0.78000
C1018       C  0.20102413  0.63294740  0.06125076     0.97300
O1019       O  0.22538501  0.59107563  0.05735021    -0.76000
O1020       O  0.15935518  0.60027750  0.49010106    -0.81200
C1021       C  0.16652649  0.55004018  0.46602318     0.99900
C1022       C  0.16507186  0.61059365  0.46353314     1.05800
O1023       O  0.18452222  0.56676468  0.45014457    -0.76800
C1024       C  0.20478411  0.57176491  0.06422227     1.04100
Fe1025     Fe  0.38467586  0.61886951  0.03099336     1.65800
Fe1026     Fe  0.41550274  0.58751663  0.01998247     1.73200
Fe1027     Fe  0.39469320  0.60631439  0.45689143     1.54400
O1028       O  0.35669617  0.59388225  0.45964207    -0.80500
O1029       O  0.44372055  0.60401088  0.48820488    -0.78800
O1030       O  0.35147901  0.60410680  0.00738463    -0.83000
O1031       O  0.39972468  0.65160738  0.00658383    -0.77900
O1032       O  0.38539545  0.56952358  0.44967752    -0.79700
O1033       O  0.43800782  0.61684183  0.04927183    -0.82400
C1034       C  0.40479874  0.65815914  0.47846244     0.98300
C1035       C  0.34315286  0.59515931  0.48075606     1.05800
O1036       O  0.39823983  0.60416895  0.00253015    -1.11400
O1037       O  0.38905012  0.56828155  0.05416834    -0.73800
O1038       O  0.36805414  0.58821693  0.05922780    -0.77300
O1039       O  0.40329634  0.64331275  0.45734295    -0.78000
C1040       C  0.37182926  0.57068020  0.06627752     0.97300
O1041       O  0.41602358  0.63535509  0.05804375    -0.76000
O1042       O  0.39590828  0.55664375  0.49233303    -0.81200
C1043       C  0.44826529  0.61547464  0.46251584     0.99900
C1044       C  0.38668073  0.55279430  0.46523581     1.05800
O1045       O  0.43236568  0.61922908  0.44867997    -0.76800
C1046       C  0.43508538  0.63336538  0.06231646     1.04100
Fe1047     Fe  0.37920563  0.76306626  0.02667959     1.65800
Fe1048     Fe  0.41435938  0.82617604  0.01952796     1.73200
Fe1049     Fe  0.39443043  0.78925046  0.45427813     1.54400
O1050       O  0.40569740  0.76310113  0.45488746    -0.80500
O1051       O  0.40066852  0.84135338  0.48810787    -0.78800
O1052       O  0.39155708  0.74409323  0.00059765    -0.83000
O1053       O  0.34642114  0.74862775  0.00226417    -0.77900
O1054       O  0.43162741  0.81669460  0.44846562    -0.79700
O1055       O  0.38458245  0.81915544  0.04771158    -0.82400
C1056       C  0.34096118  0.74798919  0.47383635     0.98300
C1057       C  0.40213969  0.74644084  0.47469108     1.05800
O1058       O  0.39605626  0.79285817  0.00008397    -1.11400
O1059       O  0.43120426  0.81557659  0.05334109    -0.73800
O1060       O  0.41001528  0.77404602  0.05408476    -0.77300
O1061       O  0.35701661  0.76108505  0.45329315    -0.78000
C1062       C  0.42814274  0.79484555  0.06285054     0.97300
O1063       O  0.36481142  0.77814427  0.05635104    -0.76000
O1064       O  0.44568648  0.83715029  0.49307544    -0.81200
C1065       C  0.38845892  0.83498852  0.46283055     0.99900
C1066       C  0.44909808  0.83302183  0.46529621     1.05800
O1067       O  0.38298416  0.81496872  0.44868465    -0.76800
C1068       C  0.36752940  0.79947236  0.06063734     1.04100
Fe1069     Fe  0.40441666  0.95403997  0.35944275     1.65800
Fe1070     Fe  0.34089817  0.92040237  0.35401705     1.73200
Fe1071     Fe  0.37731253  0.93913952  0.28780983     1.54400
O1072       O  0.40604857  0.97627220  0.28629330    -0.80500
O1073       O  0.32767319  0.88911970  0.32637218    -0.78800
O1074       O  0.41907021  0.98664413  0.33501250    -0.83000
O1075       O  0.42255940  0.94095228  0.33282874    -0.77900
O1076       O  0.35226843  0.95145970  0.28321162    -0.79700
O1077       O  0.35115954  0.90211120  0.38616281    -0.82400
C1078       C  0.41961410  0.93020909  0.30697923     0.98300
C1079       C  0.41934479  0.99221151  0.30670708     1.05800
O1080       O  0.37413192  0.93773034  0.33369700    -1.11400
O1081       O  0.34939364  0.94990286  0.38383994    -0.73800
O1082       O  0.39065302  0.96928409  0.38978679    -0.77300
O1083       O  0.40277278  0.92696245  0.28765878    -0.78000
C1084       C  0.36962384  0.96686024  0.39588778     0.97300
O1085       O  0.39287866  0.92328191  0.38667435    -0.76000
O1086       O  0.32689987  0.93622184  0.32416425    -0.81200
C1087       C  0.33195086  0.88534176  0.29875605     0.99900
C1088       C  0.33331865  0.94804724  0.29856655     1.05800
O1089       O  0.34920584  0.90232304  0.28225047    -0.76800
C1090       C  0.37200517  0.90512742  0.39533695     1.04100
Fe1091     Fe  0.04702500  0.94908000  0.36059854     1.65800
Fe1092     Fe  0.08000906  0.91992579  0.35170669     1.73200
Fe1093     Fe  0.05981082  0.93775165  0.28758017     1.54400
O1094       O  0.02297473  0.93011373  0.28868831    -0.80500
O1095       O  0.11098119  0.94038073  0.32432572    -0.78800
O1096       O  0.01316587  0.92963316  0.33845859    -0.83000
O1097       O  0.05808604  0.97993562  0.33334831    -0.77900
O1098       O  0.04623762  0.89986074  0.28211376    -0.79700
O1099       O  0.09801562  0.94730709  0.38533105    -0.82400
C1100       C  0.06927651  0.98866678  0.30780093     0.98300
C1101       C  0.00727980  0.92634968  0.30999050     1.05800
O1102       O  0.06236382  0.93561358  0.33321816    -1.11400
O1103       O  0.05058892  0.89712728  0.38097166    -0.73800
O1104       O  0.03400246  0.92044843  0.39197200    -0.77300
O1105       O  0.07323732  0.97582834  0.28836706    -0.78000
C1106       C  0.03541226  0.90108169  0.39592035     0.97300
O1107       O  0.07922093  0.96970164  0.38561189    -0.76000
O1108       O  0.06490226  0.89113706  0.32021508    -0.81200
C1109       C  0.11396291  0.94730399  0.29617496     0.99900
C1110       C  0.05184530  0.88514221  0.29560609     1.05800
O1111       O  0.09635035  0.94611619  0.27974114    -0.76800
C1112       C  0.09641939  0.96582293  0.39440960     1.04100
Fe1113     Fe  0.04672257  0.59560851  0.35981220     1.65800
Fe1114     Fe  0.08125447  0.65887266  0.35281834     1.73200
Fe1115     Fe  0.06272392  0.62170028  0.28735421     1.54400
O1116       O  0.07150692  0.59361687  0.28859056    -0.80500
O1117       O  0.06579511  0.67304653  0.32259073    -0.78800
O1118       O  0.06135210  0.57765314  0.33629626    -0.83000
O1119       O  0.01501800  0.57973762  0.33347663    -0.77900
O1120       O  0.10047549  0.64727928  0.28268174    -0.79700
O1121       O  0.05220317  0.65121808  0.38319803    -0.82400
C1122       C  0.00909670  0.58105420  0.30573592     0.98300
C1123       C  0.06997077  0.57844519  0.30949050     1.05800
O1124       O  0.06359245  0.62545584  0.33321920    -1.11400
O1125       O  0.09974903  0.64891396  0.38493314    -0.73800
O1126       O  0.07624293  0.60763601  0.38956758    -0.77300
O1127       O  0.02471232  0.59561057  0.28568285    -0.78000
C1128       C  0.09545583  0.62826395  0.39641763     0.97300
O1129       O  0.03010767  0.60980246  0.38659524    -0.76000
O1130       O  0.11206505  0.67125518  0.32476995    -0.81200
C1131       C  0.05661478  0.66796167  0.29542032     0.99900
C1132       C  0.11673735  0.66561378  0.29842746     1.05800
O1133       O  0.05397698  0.64934416  0.28014872    -0.76800
C1134       C  0.03386408  0.63111276  0.39365720     1.04100
C1135       C  0.08960719  0.55436267  0.32653117     0.24700
C1136       C  0.07746547  0.55996512  0.30304274    -0.23400
C1137       C  0.06799383  0.54429479  0.27699400     0.19600
C1138       C  0.06794215  0.52172617  0.27638520     0.24700
C1139       C  0.07746438  0.51490433  0.30175018    -0.23300
C1140       C  0.08966349  0.53204923  0.32581994     0.19600
F1141       F  0.09935629  0.52594644  0.35032092    -0.13300
F1142       F  0.09937264  0.56941899  0.35166953    -0.15600
F1143       F  0.05564532  0.00518925  0.25316890    -0.15600
F1144       F  0.05607593  0.54926599  0.25411854    -0.13300
C1145       C  0.44130122  0.53744684  0.31811258     0.24700
C1146       C  0.43734954  0.51820086  0.29776591    -0.23400
C1147       C  0.45481126  0.52318344  0.27403252     0.19600
C1148       C  0.47767835  0.54587365  0.27372973     0.24700
C1149       C  0.48300190  0.56358247  0.29706332    -0.23300
C1150       C  0.46401251  0.56002196  0.31775058     0.19600
F1151       F  0.46859982  0.57724904  0.33997574    -0.13300
F1152       F  0.42430657  0.53332860  0.34061099    -0.15600
F1153       F  0.99583158  0.54886593  0.25366013    -0.15600
F1154       F  0.45141320  0.00480945  0.25418132    -0.13300
C1155       C  0.43974676  0.90614390  0.32138469     0.24700
C1156       C  0.43724678  0.92178737  0.29995393    -0.23400
C1157       C  0.45561271  0.93408807  0.27703111     0.19600
C1158       C  0.47768548  0.93314620  0.27790609     0.24700
C1159       C  0.48155075  0.92001437  0.30189042    -0.23300
C1160       C  0.46172333  0.90520481  0.32233397     0.19600
F1161       F  0.46448711  0.89151207  0.34493907    -0.13300
F1162       F  0.42183387  0.89361503  0.34326071    -0.15600
F1163       F  0.99645558  0.94762971  0.25783295    -0.15600
F1164       F  0.45359189  0.94945881  0.25629228    -0.13300
C1165       C  0.36119216  0.84387582  0.42794236     0.24700
C1166       C  0.38149922  0.85237565  0.44871605    -0.23400
C1167       C  0.39641763  0.87819255  0.45442689     0.19600
C1168       C  0.39215521  0.89513968  0.43836592     0.24700
C1169       C  0.37279121  0.88678036  0.41637340    -0.23300
C1170       C  0.35680587  0.86097295  0.41198543     0.19600
F1171       F  0.33806771  0.85237443  0.39071866    -0.13300
F1172       F  0.34594714  0.81908626  0.42250850    -0.15600
F1173       F  0.40769895  0.91995746  0.44347373    -0.15600
F1174       F  0.41626242  0.88733278  0.47410558    -0.13300
C1175       C  0.50394904  0.85692312  0.40991620     0.24700
C1176       C  0.01748580  0.88232610  0.41788743    -0.23400
C1177       C  0.01053102  0.89040444  0.44439493     0.19600
C1178       C  0.48911685  0.87389932  0.46105206     0.24700
C1179       C  0.47414039  0.84893733  0.45139946    -0.23300
C1180       C  0.48228750  0.84034746  0.42643362     0.19600
F1181       F  0.46872142  0.81616929  0.41719071    -0.13300
F1182       F  0.51037413  0.84859436  0.38454434    -0.15600
F1183       F  0.98195012  0.88299993  0.48492081    -0.15600
F1184       F  0.02369601  0.91475610  0.45311689    -0.13300
C1185       C  0.48427261  0.60915926  0.45462064     0.24700
C1186       C  0.47263179  0.62300015  0.44772659    -0.23400
C1187       C  0.48379730  0.64245719  0.42561867     0.19600
C1188       C  0.50527222  0.64678774  0.40936361     0.24700
C1189       C  0.01553228  0.63153012  0.41487323    -0.23300
C1190       C  0.00541245  0.61344593  0.43847966     0.19600
F1191       F  0.01532064  0.59887233  0.44496034    -0.13300
F1192       F  0.47428386  0.59011808  0.47556801    -0.15600
F1193       F  0.51494254  0.66464752  0.38690587    -0.15600
F1194       F  0.47367077  0.65683696  0.41926895    -0.13300
C1195       C  0.35620185  0.99743369  0.41002721     0.24700
C1196       C  0.36957688  0.98539481  0.41719713    -0.23400
C1197       C  0.38614516  0.99389716  0.44252386     0.19600
C1198       C  0.39045719  0.51488102  0.45918377     0.24700
C1199       C  0.37860629  0.52822686  0.45065708    -0.23300
C1200       C  0.36080180  0.51883182  0.42648096     0.19600
F1201       F  0.34840410  0.53070364  0.41821284    -0.13300
F1202       F  0.34002663  0.98962596  0.38572029    -0.15600
F1203       F  0.40777706  0.52313936  0.48225992    -0.15600
F1204       F  0.39893269  0.98233901  0.45046511    -0.13300
C1205       C  0.42502471  0.70301316  0.49231788     0.24700
C1206       C  0.41133480  0.68392748  0.47070487    -0.23400
C1207       C  0.39962405  0.68859009  0.44567676     0.19600
C1208       C  0.39905535  0.71083808  0.44458275     0.24700
C1209       C  0.41023984  0.72847124  0.46842765    -0.23300
C1210       C  0.42446348  0.72508731  0.49116501     0.19600
F1211       F  0.43585775  0.74221807  0.51403921    -0.13300
F1212       F  0.43712498  0.69936590  0.51622467    -0.15600
F1213       F  0.38514188  0.71377129  0.42246320    -0.15600
F1214       F  0.38621900  0.67049530  0.42450902    -0.13300
C1215       C  0.12213570  0.60389017  0.45613302     0.24700
C1216       C  0.14791352  0.61776486  0.44922129    -0.23400
C1217       C  0.15659122  0.63739121  0.42743133     0.19600
C1218       C  0.13967120  0.64222980  0.41179834     0.24700
C1219       C  0.11379511  0.62733543  0.41746765    -0.23300
C1220       C  0.10532020  0.60863738  0.44045563     0.19600
F1221       F  0.08049996  0.59420227  0.44694942    -0.13300
F1222       F  0.11285589  0.58455502  0.47665028    -0.15600
F1223       F  0.14844511  0.66030311  0.38960545    -0.15600
F1224       F  0.18137777  0.65153190  0.42073008    -0.13300
C1225       C  0.15793951  0.51745306  0.42564378     0.24700
C1226       C  0.14984272  0.52536367  0.45145101    -0.23400
C1227       C  0.12452674  0.51100530  0.46059496     0.19600
C1228       C  0.10750153  0.99072425  0.44277358     0.24700
C1229       C  0.11530357  0.98401937  0.41589188    -0.23300
C1230       C  0.14074744  0.49682649  0.40813091     0.19600
F1231       F  0.14869437  0.49062029  0.38219532    -0.13300
F1232       F  0.18229523  0.53025617  0.41657541    -0.15600
F1233       F  0.08297548  0.97809326  0.45115513    -0.15600
F1234       F  0.11595101  0.01760546  0.48546715    -0.13300
C1235       C  0.27273926  0.70299688  0.98391306     0.24700
C1236       C  0.26972656  0.68382569  0.46406450    -0.23400
C1237       C  0.28798406  0.68902670  0.44136875     0.19600
C1238       C  0.31064693  0.71193558  0.44172042     0.24700
C1239       C  0.31506711  0.72962444  0.46481292    -0.23300
C1240       C  0.29531729  0.72574570  0.98436430     0.19600
F1241       F  0.29884201  0.74296488  0.00610640    -0.13300
F1242       F  0.25485484  0.69863919  0.00522509    -0.15600
F1243       F  0.32941146  0.71530144  0.42247080    -0.15600
F1244       F  0.28540245  0.67080619  0.42184874    -0.13300
C1245       C  0.28854728  0.59751310  0.44729086     0.24700
C1246       C  0.27194667  0.58815272  0.47255245    -0.23400
C1247       C  0.27653587  0.57577652  0.99673836     0.19600
C1248       C  0.29889313  0.57560632  0.99767717     0.24700
C1249       C  0.31690065  0.58759245  0.47429192    -0.23300
C1250       C  0.31096213  0.59717935  0.44812253     0.19600
F1251       F  0.32815297  0.60902663  0.42532176    -0.13300
F1252       F  0.28460983  0.60969784  0.42377757    -0.15600
F1253       F  0.30389530  0.56563008  0.02284138    -0.15600
F1254       F  0.26032796  0.56583738  0.02094829    -0.13300
C1255       C  0.43869110  0.77493506  0.10604999     0.24700
C1256       C  0.44665195  0.79434023  0.08411889    -0.23400
C1257       C  0.47248539  0.81109557  0.08020815     0.19600
C1258       C  0.48999522  0.80733024  0.09624373     0.24700
C1259       C  0.48196105  0.78698980  0.11686239    -0.23300
C1260       C  0.45609406  0.77138058  0.12236392     0.19600
F1261       F  0.44742650  0.75153807  0.14200610    -0.13300
F1262       F  0.41389234  0.75878371  0.11098229    -0.15600
F1263       F  0.01479049  0.82319352  0.09094212    -0.15600
F1264       F  0.48081357  0.83009306  0.05931447    -0.13300
C1265       C  0.47947327  0.66624287  0.07330154     0.24700
C1266       C  0.45444097  0.65176020  0.08304379    -0.23400
C1267       C  0.44682688  0.65805367  0.11040228     0.19600
C1268       C  0.46320952  0.67971925  0.12635173     0.24700
C1269       C  0.48768588  0.69562484  0.11521399    -0.23300
C1270       C  0.49602200  0.68818649  0.08922164     0.19600
F1271       F  0.01982254  0.70256936  0.07854087    -0.13300
F1272       F  0.48731331  0.66030266  0.04705779    -0.15600
F1273       F  0.45430020  0.68605558  0.15125432    -0.15600
F1274       F  0.42287049  0.64390556  0.12066323    -0.13300
C1275       C  0.05274917  0.82672202  0.27426893     0.24700
C1276       C  0.03650238  0.81793842  0.24873170    -0.23400
C1277       C  0.02258209  0.82928998  0.24110944     0.19600
C1278       C  0.02650265  0.85050739  0.25725898     0.24700
C1279       C  0.04425133  0.86049385  0.28150908    -0.23300
C1280       C  0.05648076  0.84758502  0.29061592     0.19600
F1281       F  0.07338149  0.85593099  0.31416396    -0.13300
F1282       F  0.56594635  0.81568307  0.28262077    -0.15600
F1283       F  0.01359808  0.86171848  0.24836794    -0.15600
F1284       F  0.00664112  0.82104160  0.21655530    -0.13300
C1285       C  0.02694465  0.69413300  0.24130844     0.24700
C1286       C  0.04150249  0.71982927  0.24769810    -0.23400
C1287       C  0.05948018  0.72793612  0.27149178     0.19600
C1288       C  0.06355430  0.71090361  0.28779595     0.24700
C1289       C  0.04991884  0.68529190  0.28046178    -0.23300
C1290       C  0.03126656  0.67701457  0.25736640     0.19600
F1291       F  0.01758113  0.65243892  0.24985427    -0.13300
F1292       F  0.50973883  0.68579598  0.21817225    -0.15600
F1293       F  0.08204060  0.71981429  0.30944328    -0.15600
F1294       F  0.07375300  0.75260947  0.27835270    -0.13300
C1295       C  0.19810788  0.51137468  0.09320280     0.24700
C1296       C  0.21663003  0.52016914  0.11645722    -0.23400
C1297       C  0.22879092  0.54556600  0.12481961     0.19600
C1298       C  0.22350956  0.56200520  0.10920505     0.24700
C1299       C  0.20590398  0.55347703  0.08498501    -0.23300
C1300       C  0.19267409  0.52789701  0.07771797     0.19600
F1301       F  0.17580956  0.51920676  0.05413748    -0.13300
F1302       F  0.18565271  0.48692068  0.08497534    -0.15600
F1303       F  0.23637900  0.58657304  0.11698040    -0.15600
F1304       F  0.24702561  0.55494156  0.14680453    -0.13300
C1305       C  0.34179479  0.52656838  0.08150279     0.24700
C1306       C  0.35448922  0.55209008  0.08872848    -0.23400
C1307       C  0.34716552  0.56020502  0.11479362     0.19600
C1308       C  0.32588905  0.54353254  0.13156903     0.24700
C1309       C  0.31128386  0.51840120  0.12222440    -0.23300
C1310       C  0.32020837  0.50981021  0.09801021     0.19600
F1311       F  0.30727800  0.98553448  0.08907728    -0.13300
F1312       F  0.34889053  0.51825634  0.05671504    -0.15600
F1313       F  0.31856377  0.55261493  0.15529605    -0.15600
F1314       F  0.35980710  0.58471361  0.12285278    -0.13300
C1315       C  0.15286074  0.94514540  0.29160182     0.24700
C1316       C  0.13866928  0.95574144  0.28169816    -0.23400
C1317       C  0.14761203  0.97289241  0.25676725     0.19600
C1318       C  0.16963632  0.97827897  0.24110024     0.24700
C1319       C  0.18268124  0.96622949  0.24982159    -0.23300
C1320       C  0.17452417  0.95027421  0.27576374     0.19600
F1321       F  0.18701080  0.93868633  0.28495559    -0.13300
F1322       F  0.14484831  0.92832221  0.31527730    -0.15600
F1323       F  0.17716632  0.99381511  0.21611321    -0.15600
F1324       F  0.13472908  0.98393139  0.24708286    -0.13300
C1325       C  0.29261311  0.94742638  0.29646948     0.24700
C1326       C  0.31729403  0.95716288  0.28546613    -0.23400
C1327       C  0.32555053  0.97400028  0.26016091     0.19600
C1328       C  0.30885413  0.97907732  0.24457121     0.24700
C1329       C  0.28368865  0.96724223  0.25381300    -0.23300
C1330       C  0.27594192  0.95221490  0.28051953     0.19600
F1331       F  0.25178523  0.94112063  0.29025385    -0.13300
F1332       F  0.28393027  0.93187629  0.32142836    -0.15600
F1333       F  0.31661945  0.49349241  0.21850731    -0.15600
F1334       F  0.34934688  0.48448103  0.24927389    -0.13300
C1335       C  0.13370467  0.89510187  0.15400939     0.24700
C1336       C  0.15283598  0.89895641  0.13339329    -0.23400
C1337       C  0.14777162  0.88149797  0.10982246     0.19600
C1338       C  0.12479835  0.85892917  0.10941570     0.24700
C1339       C  0.10689397  0.85380423  0.13260613    -0.23300
C1340       C  0.11088471  0.87261839  0.15368676     0.19600
F1341       F  0.09373094  0.86812495  0.17611263    -0.13300
F1342       F  0.13814710  0.91201668  0.17660545    -0.16500
F1343       F  0.12155606  0.84081005  0.08927622    -0.15600
F1344       F  0.16619184  0.88470504  0.09005197    -0.13300
C1345       C  0.32250712  0.78454592  0.12611184     0.24700
C1346       C  0.30594935  0.79145666  0.11328732    -0.23400
C1347       C  0.31245506  0.80478276  0.08489691     0.19600
C1348       C  0.33395612  0.80938512  0.06880964     0.24700
C1349       C  0.34913349  0.80063095  0.08067483    -0.23300
C1350       C  0.34371130  0.78890408  0.10976682     0.19600
F1351       F  0.35838989  0.78054813  0.12168940    -0.13300
F1352       F  0.31750845  0.77210742  0.15357203    -0.15600
F1353       F  0.33873933  0.82045577  0.04040955    -0.15600
F1354       F  0.29745432  0.81230066  0.07181412    -0.13300
C1355       C  0.18931377  0.66523610  0.07153223     0.24700
C1356       C  0.19998049  0.65127107  0.08174508    -0.23400
C1357       C  0.21392363  0.65808636  0.10931906     0.19600
C1358       C  0.21853494  0.67938376  0.12549761     0.24700
C1359       C  0.20967633  0.69476223  0.11409071    -0.23300
C1360       C  0.19412664  0.68684939  0.08752826     0.19600
F1361       F  0.18434717  0.70047531  0.07630051    -0.13300
F1362       F  0.17597443  0.65914661  0.04471419    -0.15600
F1363       F  0.23316478  0.68571162  0.15122895    -0.15600
F1364       F  0.22427342  0.64473939  0.11972920    -0.13300
C1365       C  0.28991390  0.84650545  0.29274785     0.24700
C1366       C  0.31539504  0.86054179  0.28447807    -0.23400
C1367       C  0.32417152  0.85178178  0.26033978     0.19600
C1368       C  0.30749792  0.83046765  0.24342236     0.24700
C1369       C  0.28173774  0.81776828  0.25009453    -0.23300
C1370       C  0.27328062  0.82543653  0.27564091     0.19600
F1371       F  0.24859219  0.81307006  0.28327320    -0.13300
F1372       F  0.28064519  0.85416433  0.31591749    -0.15600
F1373       F  0.31627930  0.82342682  0.21906838    -0.15600
F1374       F  0.34879000  0.86432829  0.25242701    -0.13300
C1375       C  0.15464744  0.70792251  0.29231911     0.24700
C1376       C  0.14158486  0.68240224  0.28444789    -0.23400
C1377       C  0.15095128  0.67414773  0.26041760     0.19600
C1378       C  0.17181973  0.69138184  0.24311839     0.24700
C1379       C  0.18330888  0.71701432  0.24943211    -0.23300
C1380       C  0.17518592  0.72500982  0.27485808     0.19600
F1381       F  0.18635098  0.74969733  0.28174583    -0.13300
F1382       F  0.14633132  0.71682207  0.31517832    -0.15600
F1383       F  0.17941895  0.68326261  0.21863450    -0.15600
F1384       F  0.13924788  0.64959707  0.25272641    -0.13300
C1385       C  0.23693617  0.85856003  0.11118679     0.24700
C1386       C  0.24689888  0.85162941  0.13598824    -0.23400
C1387       C  0.26019933  0.86905936  0.15948503     0.19600
C1388       C  0.26042718  0.89153819  0.16059153     0.24700
C1389       C  0.24754812  0.89705448  0.13806115    -0.23300
C1390       C  0.23723921  0.88124643  0.11223182     0.19600
F1391       F  0.22477492  0.88620548  0.09008163    -0.13300
F1392       F  0.22423879  0.84215164  0.08805337    -0.15600
F1393       F  0.27132256  0.90691913  0.18521465    -0.15600
F1394       F  0.27088661  0.86320223  0.18307566    -0.13300
C1395       C  0.13017588  0.74037148  0.15177064     0.24700
C1396       C  0.14965328  0.75516924  0.13103114    -0.23400
C1397       C  0.14552633  0.76801716  0.10699654     0.19600
C1398       C  0.12348350  0.76897418  0.10658898     0.24700
C1399       C  0.10560123  0.75698785  0.13012237    -0.23300
C1400       C  0.10820712  0.74122096  0.15124810     0.19600
F1401       F  0.09060950  0.72879139  0.17349611    -0.13300
F1402       F  0.13352048  0.72719463  0.17456161    -0.15600
F1403       F  0.12120553  0.78424237  0.08593775    -0.15600
F1404       F  0.16413696  0.78240014  0.08668380    -0.13300
Fe1405     Fe  0.21416401  0.78425125  0.69283843     1.65800
Fe1406     Fe  0.24680557  0.75447112  0.68403404     1.73200
Fe1407     Fe  0.22758223  0.77344600  0.61951394     1.54400
O1408       O  0.19013461  0.76263537  0.61917418    -0.80500
O1409       O  0.27677984  0.77213429  0.65429920    -0.78800
O1410       O  0.18198976  0.76948096  0.66717569    -0.83000
O1411       O  0.23007449  0.81727740  0.66915696    -0.77900
O1412       O  0.21675242  0.73622811  0.61282006    -0.79700
O1413       O  0.26730774  0.78341430  0.71515512    -0.82400
C1414       C  0.23821693  0.82511137  0.64207055     0.98300
C1415       C  0.17536157  0.76237691  0.63953839     1.05800
O1416       O  0.22950924  0.77067886  0.66538086    -1.11400
O1417       O  0.21881198  0.73404631  0.71627423    -0.73800
O1418       O  0.19676894  0.75303137  0.71985444    -0.77300
O1419       O  0.23820439  0.81107735  0.62073770    -0.78000
C1420       C  0.20082320  0.73574870  0.72727028     0.97300
O1421       O  0.24409985  0.80078164  0.72243810    -0.76000
O1422       O  0.22879058  0.72411494  0.65487060    -0.81200
C1423       C  0.28113574  0.78259448  0.62790224     0.99900
C1424       C  0.21856902  0.71974408  0.62824714     1.05800
O1425       O  0.26470867  0.78470524  0.61295357    -0.76800
C1426       C  0.26329383  0.79930997  0.72815523     1.04100
Fe1427     Fe  0.21680429  0.93223019  0.69606686     1.65800
Fe1428     Fe  0.24914002  0.49542562  0.68854791     1.73200
Fe1429     Fe  0.23194312  0.95827872  0.62339668     1.54400
O1430       O  0.24089397  0.93035443  0.62440132    -0.80500
O1431       O  0.23310506  0.50867526  0.65832475    -0.78800
O1432       O  0.23250658  0.91514612  0.67253995    -0.83000
O1433       O  0.18512974  0.91535920  0.66950253    -0.77900
O1434       O  0.26973280  0.98397855  0.61934070    -0.79700
O1435       O  0.21945892  0.98678303  0.71839198    -0.82400
C1436       C  0.17886013  0.91682586  0.64194780     0.98300
C1437       C  0.24028048  0.91561319  0.64528587     1.05800
O1438       O  0.23266013  0.96205114  0.66926382    -1.11400
O1439       O  0.26809073  0.48676199  0.72100069    -0.73800
O1440       O  0.24643975  0.94546095  0.72592859    -0.77300
O1441       O  0.19404775  0.93195910  0.62194209    -0.78000
C1442       C  0.26485080  0.96668204  0.73271983     0.97300
O1443       O  0.19912853  0.94538533  0.72305510    -0.76000
O1444       O  0.28042583  0.50844385  0.66084927    -0.81200
C1445       C  0.22436030  0.50358299  0.63104729     0.99900
C1446       C  0.28577519  0.50235680  0.63518794     1.05800
O1447       O  0.22275406  0.98555010  0.61571455    -0.76800
C1448       C  0.20174739  0.96640305  0.72931834     1.04100
Fe1449     Fe  0.07305495  0.78794917  0.69183133     1.65800
Fe1450     Fe  0.50971650  0.75368286  0.68538258     1.73200
Fe1451     Fe  0.04631829  0.77547486  0.61952864     1.54400
O1452       O  0.07378444  0.81305310  0.61968356    -0.80500
O1453       O  0.49866272  0.72357716  0.65698134    -0.78800
O1454       O  0.08900029  0.82083905  0.66778120    -0.83000
O1455       O  0.09042167  0.77419284  0.66522539    -0.77900
O1456       O  0.01969087  0.78594961  0.61541984    -0.79700
O1457       O  0.02004801  0.73515024  0.71708722    -0.82400
C1458       C  0.08847445  0.76575498  0.63804311     0.98300
C1459       C  0.08837632  0.82775149  0.64033098     1.05800
O1460       O  0.04300626  0.77243081  0.66549331    -1.11400
O1461       O  0.01729846  0.78238920  0.71581644    -0.73800
O1462       O  0.05878755  0.80314687  0.72150087    -0.77300
O1463       O  0.07309971  0.76509696  0.61810369    -0.78000
C1464       C  0.03735863  0.79984053  0.72763831     0.97300
O1465       O  0.06153361  0.75725697  0.71941783    -0.76000
O1466       O  0.49424727  0.76849231  0.65591940    -0.81200
C1467       C  0.50324622  0.72057511  0.62923037     0.99900
C1468       C  0.49993367  0.78048765  0.63043178     1.05800
O1469       O  0.01967808  0.73828619  0.61269886    -0.76800
C1470       C  0.04078786  0.73851282  0.72706274     1.04100
Fe1471     Fe  0.23704759  0.62059895  0.52766560     1.65800
Fe1472     Fe  0.17365906  0.58526269  0.52061916     1.73200
Fe1473     Fe  0.21109513  0.60412155  0.95521982     1.54400
O1474       O  0.23825481  0.64181234  0.95307642    -0.80500
O1475       O  0.16131157  0.55413412  0.99300757    -0.78800
O1476       O  0.25250304  0.65232817  0.50132107    -0.83000
O1477       O  0.25532682  0.60636144  0.50392906    -0.77900
O1478       O  0.18420785  0.61407885  0.94844130    -0.79700
O1479       O  0.18398373  0.56728241  0.55292804    -0.82400
C1480       C  0.25388890  0.59641851  0.97789146     0.98300
C1481       C  0.25205440  0.65780099  0.97314716     1.05800
O1482       O  0.20719926  0.60328935  0.50106380    -1.11400
O1483       O  0.18110177  0.61457127  0.55043612    -0.73800
O1484       O  0.22257478  0.63684534  0.55492607    -0.77300
O1485       O  0.23830480  0.59400599  0.95702919    -0.78000
C1486       C  0.20101934  0.63295283  0.56123974     0.97300
O1487       O  0.22537422  0.59108383  0.55735088    -0.76000
O1488       O  0.15935768  0.60026756  0.99010622    -0.81200
C1489       C  0.16652927  0.55003217  0.96604606     0.99900
C1490       C  0.16507608  0.61058569  0.96353981     1.05800
O1491       O  0.18452156  0.56675718  0.95016287    -0.76800
C1492       C  0.20477680  0.57176524  0.56421310     1.04100
Fe1493     Fe  0.38466093  0.61886158  0.53100914     1.65800
Fe1494     Fe  0.41550085  0.58751980  0.51999029     1.73200
Fe1495     Fe  0.39470250  0.60631242  0.95688381     1.54400
O1496       O  0.35670130  0.59385248  0.95962848    -0.80500
O1497       O  0.44369860  0.60395701  0.98815622    -0.78800
O1498       O  0.35144139  0.60403917  0.50743946    -0.83000
O1499       O  0.39964652  0.65158177  0.50656779    -0.77900
O1500       O  0.38543283  0.56952903  0.94967100    -0.79700
O1501       O  0.43796844  0.61681798  0.54932973    -0.82400
C1502       C  0.40482699  0.65816665  0.97846642     0.98300
C1503       C  0.34317629  0.59518462  0.98072178     1.05800
O1504       O  0.39823157  0.60416852  0.50254028    -1.11400
O1505       O  0.38902347  0.56823919  0.55413349    -0.73800
O1506       O  0.36809554  0.58823360  0.55929266    -0.77300
O1507       O  0.40327321  0.64330210  0.95734004    -0.78000
C1508       C  0.37183882  0.57066823  0.56629694     0.97300
O1509       O  0.41603644  0.63540092  0.55800777    -0.76000
O1510       O  0.39586275  0.55661872  0.99237023    -0.81200
C1511       C  0.44826051  0.61545388  0.96248962     0.99900
C1512       C  0.38667240  0.55278359  0.96525274     1.05800
O1513       O  0.43238024  0.61925344  0.94868337    -0.76800
C1514       C  0.43507404  0.63337693  0.56232216     1.04100
Fe1515     Fe  0.37921073  0.76307398  0.52669121     1.65800
Fe1516     Fe  0.41435089  0.82618569  0.51953534     1.73200
Fe1517     Fe  0.39443252  0.78924462  0.95427086     1.54400
O1518       O  0.40570666  0.76310125  0.95488320    -0.80500
O1519       O  0.40069406  0.84135510  0.98809065    -0.78800
O1520       O  0.39157837  0.74411163  0.50061756    -0.83000
O1521       O  0.34642645  0.74861911  0.50226791    -0.77900
O1522       O  0.43162868  0.81669459  0.94845666    -0.79700
O1523       O  0.38457939  0.81915727  0.54773358    -0.82400
C1524       C  0.34095917  0.74798751  0.97383021     0.98300
C1525       C  0.40213314  0.74643128  0.97467991     1.05800
O1526       O  0.39605400  0.79286580  0.50009267    -1.11400
O1527       O  0.43121269  0.81559778  0.55333649    -0.73800
O1528       O  0.41001916  0.77406709  0.55410846    -0.77300
O1529       O  0.35701896  0.76107235  0.95328508    -0.78000
C1530       C  0.42815089  0.79487000  0.56285897     0.97300
O1531       O  0.36480211  0.77814309  0.55635180    -0.76000
O1532       O  0.44569881  0.83712937  0.99307831    -0.81200
C1533       C  0.38847208  0.83498727  0.96282198     0.99900
C1534       C  0.44910448  0.83301146  0.96529163     1.05800
O1535       O  0.38298065  0.81495961  0.94868365    -0.76800
C1536       C  0.36752365  0.79947117  0.56065059     1.04100
Fe1537     Fe  0.40442413  0.95404088  0.85944341     1.65800
Fe1538     Fe  0.34090588  0.92040819  0.85402521     1.73200
Fe1539     Fe  0.37731580  0.93912863  0.78781610     1.54400
O1540       O  0.40606037  0.97625788  0.78629191    -0.80500
O1541       O  0.32768007  0.88911654  0.82639757    -0.78800
O1542       O  0.41906646  0.98664416  0.83501412    -0.83000
O1543       O  0.42257359  0.94096278  0.83282431    -0.77900
O1544       O  0.35227958  0.95145798  0.78321084    -0.79700
O1545       O  0.35117146  0.90212735  0.88618538    -0.82400
C1546       C  0.41961965  0.93020542  0.80698374     0.98300
C1547       C  0.41934895  0.99220349  0.80670407     1.05800
O1548       O  0.37413779  0.93772841  0.83370215    -1.11400
O1549       O  0.34940378  0.94991899  0.88383074    -0.73800
O1550       O  0.39065974  0.96927916  0.88979433    -0.77300
O1551       O  0.40276712  0.92694138  0.78767216    -0.78000
C1552       C  0.36963468  0.96686790  0.89588663     0.97300
O1553       O  0.39289142  0.92328097  0.88666969    -0.76000
O1554       O  0.32690431  0.93621785  0.82415683    -0.81200
C1555       C  0.33195156  0.88533499  0.79878022     0.99900
C1556       C  0.33332621  0.94804376  0.79855880     1.05800
O1557       O  0.34920161  0.90231419  0.78226716    -0.76800
C1558       C  0.37201724  0.90513499  0.89534635     1.04100
Fe1559     Fe  0.04702961  0.94907733  0.86061998     1.65800
Fe1560     Fe  0.08000890  0.91991864  0.85170844     1.73200
Fe1561     Fe  0.05980699  0.93775303  0.78759272     1.54400
O1562       O  0.02297748  0.93013050  0.78870766    -0.80500
O1563       O  0.11097632  0.94036568  0.82431535    -0.78800
O1564       O  0.01316938  0.92964423  0.83847918    -0.83000
O1565       O  0.05809802  0.97993692  0.83337878    -0.77900
O1566       O  0.04622461  0.89985880  0.78211850    -0.79700
O1567       O  0.09802953  0.94730388  0.88532872    -0.82400
C1568       C  0.06928491  0.98866970  0.80783003     0.98300
C1569       C  0.00728536  0.92637247  0.81001039     1.05800
O1570       O  0.06236372  0.93561042  0.83323042    -1.11400
O1571       O  0.05059520  0.89712541  0.88098689    -0.73800
O1572       O  0.03400005  0.92043978  0.89198188    -0.77300
O1573       O  0.07324203  0.97583223  0.78838967    -0.78000
C1574       C  0.03541498  0.90107647  0.89593313     0.97300
O1575       O  0.07922487  0.96968875  0.88564002    -0.76000
O1576       O  0.06488752  0.89112796  0.82021584    -0.81200
C1577       C  0.11395388  0.94728827  0.79616441     0.99900
C1578       C  0.05183057  0.88513661  0.79560603     1.05800
O1579       O  0.09634033  0.94610637  0.77973937    -0.76800
C1580       C  0.09642937  0.96581431  0.89442297     1.04100
Fe1581     Fe  0.04672328  0.59560599  0.85983047     1.65800
Fe1582     Fe  0.08125584  0.65887036  0.85283854     1.73200
Fe1583     Fe  0.06272299  0.62169868  0.78737332     1.54400
O1584       O  0.07149102  0.59360499  0.78860650    -0.80500
O1585       O  0.06579375  0.67304743  0.82261651    -0.78800
O1586       O  0.06136040  0.57765562  0.83632045    -0.83000
O1587       O  0.01502093  0.57973014  0.83349076    -0.77900
O1588       O  0.10047947  0.64726607  0.78270376    -0.79700
O1589       O  0.05221075  0.65121436  0.88323025    -0.82400
C1590       C  0.00909443  0.58105524  0.80575532     0.98300
C1591       C  0.06996795  0.57844140  0.80950954     1.05800
O1592       O  0.06359199  0.62545392  0.83323827    -1.11400
O1593       O  0.09975643  0.64891064  0.88494326    -0.73800
O1594       O  0.07624005  0.60763499  0.88959094    -0.77300
O1595       O  0.02470646  0.59562034  0.78570440    -0.78000
C1596       C  0.09545850  0.62826061  0.89643309     0.97300
O1597       O  0.03010391  0.60979797  0.88660741    -0.76000
O1598       O  0.11206051  0.67125320  0.82478207    -0.81200
C1599       C  0.05662679  0.66796944  0.79543866     0.99900
C1600       C  0.11673730  0.66560630  0.79844598     1.05800
O1601       O  0.05399345  0.64935451  0.78016533    -0.76800
C1602       C  0.03386742  0.63110856  0.89368225     1.04100
C1603       C  0.08961212  0.55436473  0.82654500     0.24700
C1604       C  0.07746597  0.55996428  0.80305940    -0.23400
C1605       C  0.06799823  0.54429638  0.77700806     0.19600
C1606       C  0.06795177  0.52173057  0.77639607     0.24700
C1607       C  0.07747430  0.51490911  0.80176101    -0.23300
C1608       C  0.08967330  0.53205401  0.82583067     0.19600
F1609       F  0.09936966  0.52595289  0.85032934    -0.13300
F1610       F  0.09937753  0.56942086  0.85168355    -0.15600
F1611       F  0.05566954  0.00519539  0.75318812    -0.15600
F1612       F  0.05607940  0.54926664  0.75413290    -0.13300
C1613       C  0.44128227  0.53744513  0.81807642     0.24700
C1614       C  0.43732581  0.51818738  0.79774787    -0.23400
C1615       C  0.45478787  0.52315314  0.77402074     0.19600
C1616       C  0.47765909  0.54583855  0.77370872     0.24700
C1617       C  0.48298626  0.56356045  0.79702552    -0.23300
C1618       C  0.46399801  0.56001619  0.81770477     0.19600
F1619       F  0.46859006  0.57725579  0.83991425    -0.13300
F1620       F  0.42428716  0.53334310  0.84056715    -0.15600
F1621       F  0.99582097  0.54888927  0.75365397    -0.15600
F1622       F  0.45143155  0.00478543  0.75419681    -0.13300
C1623       C  0.43975573  0.90614211  0.82138291     0.24700
C1624       C  0.43725506  0.92178790  0.79995702    -0.23400
C1625       C  0.45562144  0.93409377  0.77703615     0.19600
C1626       C  0.47769352  0.93315076  0.77790488     0.24700
C1627       C  0.48155835  0.92001326  0.80188186    -0.23300
C1628       C  0.46173148  0.90520123  0.82232547     0.19600
F1629       F  0.46449560  0.89150491  0.84492537    -0.13300
F1630       F  0.42184463  0.89361232  0.84326061    -0.15600
F1631       F  0.99650331  0.94773322  0.75790915    -0.15600
F1632       F  0.45360167  0.94947035  0.75630595    -0.13300
C1633       C  0.36120357  0.84388082  0.92794363     0.24700
C1634       C  0.38151455  0.85237809  0.94871104    -0.23400
C1635       C  0.39643500  0.87819495  0.95442298     0.19600
C1636       C  0.39217045  0.89514386  0.93836899     0.24700
C1637       C  0.37280266  0.88678675  0.91638213    -0.23300
C1638       C  0.35681548  0.86097977  0.91199389     0.19600
F1639       F  0.33807332  0.85238337  0.89073295    -0.13300
F1640       F  0.34595596  0.81909185  0.92250881    -0.15600
F1641       F  0.40771547  0.91996129  0.94347767    -0.15600
F1642       F  0.41628281  0.88733359  0.97409673    -0.13300
C1643       C  0.50395124  0.85691822  0.90990260     0.24700
C1644       C  0.01748943  0.88232087  0.91790074    -0.23400
C1645       C  0.01053049  0.89039971  0.94440445     0.19600
C1646       C  0.48911649  0.87389302  0.96103757     0.24700
C1647       C  0.47414496  0.84892915  0.95139084    -0.23300
C1648       C  0.48229282  0.84034036  0.92642483     0.19600
F1649       F  0.46873089  0.81616027  0.91718813    -0.13300
F1650       F  0.51037677  0.84858931  0.88453128    -0.15600
F1651       F  0.98194071  0.88299653  0.98491872    -0.15600
F1652       F  0.02369227  0.91475207  0.95312409    -0.13300
C1653       C  0.48427507  0.60914316  0.95459643     0.24700
C1654       C  0.47262508  0.62297487  0.94769399    -0.23400
C1655       C  0.48378129  0.64242233  0.92557178     0.19600
C1656       C  0.50525357  0.64675146  0.90931255     0.24700
C1657       C  0.01553934  0.63152590  0.91490545    -0.23300
C1658       C  0.00540061  0.61342242  0.93848943     0.19600
F1659       F  0.01528462  0.59882340  0.94494324    -0.13300
F1660       F  0.47430011  0.59011350  0.97556007    -0.15600
F1661       F  0.51491263  0.66460002  0.88684080    -0.15600
F1662       F  0.47364728  0.65679353  0.91920970    -0.13300
C1663       C  0.35619902  0.99742897  0.91004873     0.24700
C1664       C  0.36959487  0.98540700  0.91719576    -0.23400
C1665       C  0.38618552  0.99392761  0.94250055     0.19600
C1666       C  0.39043213  0.51486182  0.95920574     0.24700
C1667       C  0.37858841  0.52821359  0.95067791    -0.23300
C1668       C  0.36078449  0.51882386  0.92650135     0.19600
F1669       F  0.34839279  0.53070228  0.91823541    -0.13300
F1670       F  0.34000182  0.98960433  0.88576408    -0.15600
F1671       F  0.40775112  0.52311725  0.98228268    -0.15600
F1672       F  0.39899506  0.98238795  0.95042154    -0.13300
C1673       C  0.42504428  0.70302436  0.99230960     0.24700
C1674       C  0.41135395  0.68393202  0.97070358    -0.23400
C1675       C  0.39963052  0.68858335  0.94567988     0.19600
C1676       C  0.39905127  0.71082545  0.94458339     0.24700
C1677       C  0.41023699  0.72846435  0.96842139    -0.23300
C1678       C  0.42446941  0.72509135  0.99115632     0.19600
F1679       F  0.43585981  0.74222540  0.01402807    -0.13300
F1680       F  0.43715777  0.69939021  0.01621160    -0.15600
F1681       F  0.38512681  0.71374707  0.92246893    -0.15600
F1682       F  0.38622294  0.67048258  0.92451978    -0.13300
C1683       C  0.12213873  0.60387446  0.95613220     0.24700
C1684       C  0.14791707  0.61775468  0.94922640    -0.23400
C1685       C  0.15659494  0.63738540  0.92744298     0.19600
C1686       C  0.13967460  0.64222494  0.91181244     0.24700
C1687       C  0.11379812  0.62732798  0.91747898    -0.23300
C1688       C  0.10532315  0.60862363  0.94045922     0.19600
F1689       F  0.08050280  0.59418414  0.94694979    -0.13300
F1690       F  0.11285889  0.58453251  0.97663944    -0.15600
F1691       F  0.14844899  0.66030255  0.88962506    -0.15600
F1692       F  0.18138204  0.65152992  0.92074629    -0.13300
C1693       C  0.15793592  0.51745111  0.92565757     0.24700
C1694       C  0.14984516  0.52535382  0.95147802    -0.23400
C1695       C  0.12453350  0.51098572  0.96063867     0.19600
C1696       C  0.10751806  0.99070457  0.94279999     0.24700
C1697       C  0.11531645  0.98401103  0.91590495    -0.23300
C1698       C  0.14074103  0.49682702  0.90814488     0.19600
F1699       F  0.14868162  0.49062895  0.88219691    -0.13300
F1700       F  0.18228815  0.53026011  0.91657579    -0.15600
F1701       F  0.08299527  0.97806057  0.95119560    -0.15600
F1702       F  0.11596927  0.01757532  0.98550674    -0.13300
C1703       C  0.27273728  0.70300168  0.48389838     0.24700
C1704       C  0.26972439  0.68382211  0.96407420    -0.23400
C1705       C  0.28797475  0.68902622  0.94136670     0.19600
C1706       C  0.31063723  0.71193610  0.94171295     0.24700
C1707       C  0.31506322  0.72962339  0.96481043    -0.23300
C1708       C  0.29531680  0.72574940  0.48435625     0.19600
F1709       F  0.29883709  0.74297087  0.50609263    -0.13300
F1710       F  0.25484636  0.69864609  0.50519944    -0.15600
F1711       F  0.32939617  0.71530427  0.92245154    -0.15600
F1712       F  0.28538727  0.67080829  0.92183783    -0.13300
C1713       C  0.28858066  0.59756913  0.94729145     0.24700
C1714       C  0.27197006  0.58817665  0.97254133    -0.23400
C1715       C  0.27651291  0.57576687  0.49676749     0.19600
C1716       C  0.29886784  0.57559254  0.49771697     0.24700
C1717       C  0.31692789  0.58762470  0.97425974    -0.23300
C1718       C  0.31099789  0.59724024  0.94811313     0.19600
F1719       F  0.32819944  0.60911938  0.92533191    -0.13300
F1720       F  0.28464988  0.60978012  0.92380510    -0.15600
F1721       F  0.30386868  0.56562998  0.52289641    -0.15600
F1722       F  0.26030815  0.56584692  0.52098323    -0.13300
C1723       C  0.43870837  0.77499926  0.60609725     0.24700
C1724       C  0.44666693  0.79437329  0.58412241    -0.23400
C1725       C  0.47250073  0.81109967  0.58016301     0.19600
C1726       C  0.49001063  0.80733039  0.59619200     0.24700
C1727       C  0.48197702  0.78701489  0.61685236    -0.23300
C1728       C  0.45611196  0.77144116  0.62240539     0.19600
F1729       F  0.44744321  0.75162818  0.64209590    -0.13300
F1730       F  0.41390963  0.75888147  0.61107904    -0.15600
F1731       F  0.01480734  0.82314242  0.59083443    -0.15600
F1732       F  0.48082589  0.83006909  0.55922836    -0.13300
C1733       C  0.47946428  0.66624705  0.57328753     0.24700
C1734       C  0.45443558  0.65176763  0.58304255    -0.23400
C1735       C  0.44683178  0.65805811  0.61040990     0.19600
C1736       C  0.46322178  0.67972120  0.62635788     0.24700
C1737       C  0.48769315  0.69562939  0.61520362    -0.23300
C1738       C  0.49601993  0.68818999  0.58920308     0.19600
F1739       F  0.01982573  0.70256554  0.57852537    -0.13300
F1740       F  0.48729324  0.66030380  0.54703654    -0.15600
F1741       F  0.45432364  0.68605139  0.65127737    -0.15600
F1742       F  0.42287880  0.64390895  0.62068173    -0.13300
C1743       C  0.05273807  0.82671813  0.77425641     0.24700
C1744       C  0.03650226  0.81794191  0.74870849    -0.23400
C1745       C  0.02258590  0.82929710  0.74108121     0.19600
C1746       C  0.02650029  0.85051062  0.75723740     0.24700
C1747       C  0.04423795  0.86048934  0.78150077    -0.23300
C1748       C  0.05646184  0.84757561  0.79061135     0.19600
F1749       F  0.07334974  0.85591110  0.81417333    -0.13300
F1750       F  0.56596711  0.81569698  0.78259280    -0.15600
F1751       F  0.01360039  0.86172526  0.74834074    -0.15600
F1752       F  0.00665405  0.82105533  0.71651794    -0.13300
C1753       C  0.02695236  0.69414442  0.74134000     0.24700
C1754       C  0.04154106  0.71984600  0.74768811    -0.23400
C1755       C  0.05955019  0.72795819  0.77144634     0.19600
C1756       C  0.06361736  0.71092423  0.78775953     0.24700
C1757       C  0.04994425  0.68530582  0.78047046    -0.23300
C1758       C  0.03126834  0.67702482  0.75740613     0.19600
F1759       F  0.01755179  0.65244272  0.74993450    -0.13300
F1760       F  0.50975051  0.68579750  0.71811749    -0.15600
F1761       F  0.08213180  0.71983608  0.80936951    -0.15600
F1762       F  0.07385814  0.75263623  0.77826558    -0.13300
C1763       C  0.19809968  0.51137401  0.59320831     0.24700
C1764       C  0.21663632  0.52017224  0.61644512    -0.23400
C1765       C  0.22880917  0.54557265  0.62479188     0.19600
C1766       C  0.22352365  0.56201069  0.60918085     0.24700
C1767       C  0.20590296  0.55347892  0.58497668    -0.23300
C1768       C  0.19266214  0.52789542  0.57772584     0.19600
F1769       F  0.17578016  0.51919903  0.55416453    -0.13300
F1770       F  0.18563175  0.48691627  0.58499771    -0.15600
F1771       F  0.23640289  0.58658066  0.61694526    -0.15600
F1772       F  0.24705814  0.55495173  0.64675864    -0.13300
C1773       C  0.34181554  0.52655493  0.58155049     0.24700
C1774       C  0.35449989  0.55208099  0.58875581    -0.23400
C1775       C  0.34716783  0.56020057  0.61481019     0.19600
C1776       C  0.32588776  0.54353088  0.63158205     0.24700
C1777       C  0.31129072  0.51839570  0.62225087    -0.23300
C1778       C  0.32022726  0.50979888  0.59805764     0.19600
F1779       F  0.30724808  0.98553052  0.58904252    -0.13300
F1780       F  0.34892302  0.51823414  0.55678292    -0.15600
F1781       F  0.31855003  0.55261907  0.65528947    -0.15600
F1782       F  0.35980436  0.58471093  0.62286155    -0.13300
C1783       C  0.15285854  0.94513949  0.79159066     0.24700
C1784       C  0.13865676  0.95572193  0.78167752    -0.23400
C1785       C  0.14758747  0.97285822  0.75673056     0.19600
C1786       C  0.16961316  0.97824856  0.74106430     0.24700
C1787       C  0.18267258  0.96621749  0.74980148    -0.23300
C1788       C  0.17452413  0.95027271  0.77575392     0.19600
F1789       F  0.18702234  0.93869987  0.78495912    -0.13300
F1790       F  0.14485551  0.92832580  0.81527629    -0.15600
F1791       F  0.17713100  0.99377005  0.71606338    -0.15600
F1792       F  0.13469140  0.98387897  0.74702905    -0.13300
C1793       C  0.29262837  0.94744231  0.79647009     0.24700
C1794       C  0.31730203  0.95715854  0.78544969    -0.23400
C1795       C  0.32555048  0.97397442  0.76012137     0.19600
C1796       C  0.30885282  0.97905035  0.74453180     0.24700
C1797       C  0.28369378  0.96723549  0.75379557    -0.23300
C1798       C  0.27595543  0.95222844  0.78051898     0.19600
F1799       F  0.25180445  0.94115201  0.79027050    -0.13300
F1800       F  0.28395346  0.93191503  0.82145041    -0.15600
F1801       F  0.31659639  0.49347325  0.71852214    -0.15600
F1802       F  0.34931794  0.48445068  0.74928147    -0.13300
C1803       C  0.13369952  0.89509555  0.65395690     0.24700
C1804       C  0.15284439  0.89893898  0.63337157    -0.23400
C1805       C  0.14779432  0.88147356  0.60981487     0.19600
C1806       C  0.12481943  0.85890781  0.60939660     0.24700
C1807       C  0.10689835  0.85379434  0.63255949    -0.23300
C1808       C  0.11087601  0.87261623  0.65361981     0.19600
F1809       F  0.09370457  0.86813311  0.67601704    -0.13300
F1810       F  0.13812871  0.91201775  0.67653766    -0.16500
F1811       F  0.12159015  0.84078025  0.58927947    -0.15600
F1812       F  0.16622799  0.88467074  0.59007441    -0.13300
C1813       C  0.32249975  0.78452445  0.62612650     0.24700
C1814       C  0.30595096  0.79145220  0.61331659    -0.23400
C1815       C  0.31246275  0.80479414  0.58493795     0.19600
C1816       C  0.33396212  0.80939721  0.56884638     0.24700
C1817       C  0.34913047  0.80062688  0.58069558    -0.23300
C1818       C  0.34370201  0.78888328  0.60977724     0.19600
F1819       F  0.35837163  0.78051088  0.62168385    -0.13300
F1820       F  0.31749156  0.77206593  0.65357271    -0.15600
F1821       F  0.33875203  0.82048510  0.54045673    -0.15600
F1822       F  0.29746974  0.81232835  0.57187140    -0.13300
C1823       C  0.18930953  0.66524211  0.57153077     0.24700
C1824       C  0.19997478  0.65127431  0.58173862    -0.23400
C1825       C  0.21391686  0.65808526  0.60931324     0.19600
C1826       C  0.21852905  0.67938073  0.62549784     0.24700
C1827       C  0.20967154  0.69476197  0.61409679    -0.23300
C1828       C  0.19412159  0.68685248  0.58753426     0.19600
F1829       F  0.18434110  0.70047936  0.57631244    -0.13300
F1830       F  0.17597243  0.65915832  0.54471135    -0.15600
F1831       F  0.23315721  0.68570322  0.65122999    -0.15600
F1832       F  0.22426536  0.64473577  0.61971846    -0.13300
C1833       C  0.28991100  0.84650491  0.79277206     0.24700
C1834       C  0.31539377  0.86053348  0.78450890    -0.23400
C1835       C  0.32417026  0.85176657  0.76037882     0.19600
C1836       C  0.30749513  0.83045370  0.74346071     0.24700
C1837       C  0.28173373  0.81776348  0.75012351    -0.23300
C1838       C  0.27327587  0.82543823  0.77566291     0.19600
F1839       F  0.24858550  0.81308119  0.78328474    -0.13300
F1840       F  0.28064339  0.85417059  0.81593549    -0.15600
F1841       F  0.31627676  0.82340625  0.71911363    -0.15600
F1842       F  0.34879043  0.86430600  0.75247417    -0.13300
C1843       C  0.15463058  0.70792171  0.79232108     0.24700
C1844       C  0.14158513  0.68239764  0.78447013    -0.23400
C1845       C  0.15097017  0.67414051  0.76046521     0.19600
C1846       C  0.17183969  0.69137524  0.74316684     0.24700
C1847       C  0.18331070  0.71701060  0.74945652    -0.23300
C1848       C  0.17517072  0.72500874  0.77486349     0.19600
F1849       F  0.18632089  0.74969779  0.78173601    -0.13300
F1850       F  0.14629566  0.71682375  0.81515543    -0.15600
F1851       F  0.17945866  0.68325122  0.71870764    -0.15600
F1852       F  0.13928523  0.64958563  0.75279947    -0.13300
C1853       C  0.23696788  0.85856602  0.61118673     0.24700
C1854       C  0.24691264  0.85162989  0.63600293    -0.23400
C1855       C  0.26020081  0.86905619  0.65950771     0.19600
C1856       C  0.26043207  0.89153697  0.66060496     0.24700
C1857       C  0.24756736  0.89705754  0.63805858    -0.23300
C1858       C  0.23727300  0.88125365  0.61222366     0.19600
F1859       F  0.22482271  0.88621742  0.59005882    -0.13300
F1860       F  0.22428444  0.84216159  0.58804454    -0.15600
F1861       F  0.27131361  0.90691467  0.68523430    -0.15600
F1862       F  0.27087170  0.86319381  0.68311289    -0.13300
C1863       C  0.13017677  0.74037634  0.65180608     0.24700
C1864       C  0.14965123  0.75516073  0.63105624    -0.23400
C1865       C  0.14551526  0.76798124  0.60699369     0.19600
C1866       C  0.12346871  0.76893153  0.60656978     0.24700
C1867       C  0.10559377  0.75696779  0.63011612    -0.23300
C1868       C  0.10820529  0.74121987  0.65126760     0.19600
F1869       F  0.09061108  0.72880635  0.67352434    -0.13300
F1870       F  0.13352598  0.72721911  0.67461955    -0.15600
F1871       F  0.12117946  0.78417259  0.58588501    -0.15600
F1872       F  0.16411919  0.78234509  0.58666384    -0.13300
Fe1873     Fe  0.71419094  0.28431541  0.19276668     1.65800
Fe1874     Fe  0.74678483  0.25447891  0.18403900     1.73200
Fe1875     Fe  0.72759424  0.27343054  0.11946697     1.54400
O1876       O  0.69017806  0.26277814  0.11911652    -0.80500
O1877       O  0.77679439  0.27217099  0.15439243    -0.78800
O1878       O  0.68197989  0.26947392  0.16716286    -0.83000
O1879       O  0.73005874  0.31729445  0.16897259    -0.77900
O1880       O  0.71661238  0.23617137  0.11286312    -0.79700
O1881       O  0.76724919  0.28338784  0.21520100    -0.82400
C1882       C  0.73829937  0.32512275  0.14191459     0.98300
C1883       C  0.67538089  0.26245938  0.13949388     1.05800
O1884       O  0.72951731  0.27070101  0.16534367    -1.11400
O1885       O  0.71875148  0.23403606  0.21620143    -0.73800
O1886       O  0.69683897  0.25314856  0.21988811    -0.77300
O1887       O  0.73836414  0.31109119  0.12063600    -0.78000
C1888       C  0.70082084  0.23580758  0.22725126     0.97300
O1889       O  0.74416602  0.30091633  0.22230375    -0.76000
O1890       O  0.72881093  0.22414439  0.15484515    -0.81200
C1891       C  0.78113558  0.28251625  0.12792732     0.99900
C1892       C  0.71849251  0.21972167  0.12828109     1.05800
O1893       O  0.76469501  0.28454042  0.11288082    -0.76800
C1894       C  0.76330131  0.29936076  0.22810073     1.04100
Fe1895     Fe  0.71682281  0.43211632  0.19596184     1.65800
Fe1896     Fe  0.74922008  0.99555526  0.18855867     1.73200
Fe1897     Fe  0.73197579  0.45822700  0.12331749     1.54400
O1898       O  0.74089621  0.43028426  0.12430396    -0.80500
O1899       O  0.73319803  0.00881428  0.15831360    -0.78800
O1900       O  0.73266621  0.41514395  0.17248011    -0.83000
O1901       O  0.68520630  0.41519057  0.16930369    -0.77900
O1902       O  0.76977275  0.48390930  0.11934043    -0.79700
O1903       O  0.71934855  0.48657902  0.21835794    -0.82400
C1904       C  0.67892401  0.41672779  0.14178090     0.98300
C1905       C  0.74037424  0.41559061  0.14519254     1.05800
O1906       O  0.73264699  0.46195691  0.16919005    -1.11400
O1907       O  0.76817510  0.98688737  0.22102376    -0.73800
O1908       O  0.74640023  0.44539455  0.22592745    -0.77300
O1909       O  0.69408446  0.43193559  0.12181508    -0.78000
C1910       C  0.76480539  0.46662663  0.23269101     0.97300
O1911       O  0.69901255  0.44517085  0.22288519    -0.76000
O1912       O  0.78047427  0.00850632  0.16082881    -0.81200
C1913       C  0.72438691  0.00367900  0.13106672     0.99900
C1914       C  0.78576813  0.00240983  0.13513802     1.05800
O1915       O  0.72281098  0.48551600  0.11562404    -0.76800
C1916       C  0.70161467  0.46617451  0.22920271     1.04100
Fe1917     Fe  0.57303935  0.28794621  0.19186795     1.65800
Fe1918     Fe  0.00966998  0.25367238  0.18544687     1.73200
Fe1919     Fe  0.54626606  0.27550253  0.11960333     1.54400
O1920       O  0.57381656  0.31303401  0.11976632    -0.80500
O1921       O  0.99860007  0.22356580  0.15703698    -0.78800
O1922       O  0.58892844  0.32088646  0.16791650    -0.83000
O1923       O  0.59045603  0.27430114  0.16514109    -0.77900
O1924       O  0.51971821  0.28609269  0.11558144    -0.79700
O1925       O  0.52003488  0.23516428  0.21714288    -0.82400
C1926       C  0.58844203  0.26579271  0.13798655     0.98300
C1927       C  0.58836767  0.32775572  0.14042144     1.05800
O1928       O  0.54297617  0.27244479  0.16556251    -1.11400
O1929       O  0.51728767  0.28238457  0.21594571    -0.73800
O1930       O  0.55876445  0.30304615  0.22168486    -0.77300
O1931       O  0.57297250  0.26502472  0.11811400    -0.78000
C1932       C  0.53735045  0.29977168  0.22784020     0.97300
O1933       O  0.56153634  0.25718672  0.21931297    -0.76000
O1934       O  0.99421851  0.26851322  0.15599240    -0.81200
C1935       C  0.00314121  0.22060040  0.12925274     0.99900
C1936       C  0.99994837  0.28058907  0.13055956     1.05800
O1937       O  0.51955323  0.23835355  0.11274615    -0.76800
C1938       C  0.54078200  0.23847784  0.22701592     1.04100
Fe1939     Fe  0.73707727  0.12074711  0.02767412     1.65800
Fe1940     Fe  0.67369487  0.08534054  0.02056738     1.73200
Fe1941     Fe  0.71117410  0.10427539  0.45517344     1.54400
O1942       O  0.73829526  0.14197711  0.45305730    -0.80500
O1943       O  0.66136814  0.05425691  0.49284431    -0.78800
O1944       O  0.75250876  0.15249176  0.00135714    -0.83000
O1945       O  0.75541530  0.10656747  0.00394048    -0.77900
O1946       O  0.68425690  0.11418955  0.44839227    -0.79700
O1947       O  0.68403749  0.06734589  0.05283262    -0.82400
C1948       C  0.75399094  0.09661797  0.47789144     0.98300
C1949       C  0.75208759  0.15796380  0.47313217     1.05800
O1950       O  0.70724515  0.10341443  0.00104573    -1.11400
O1951       O  0.68108381  0.11458464  0.05046145    -0.73800
O1952       O  0.72255319  0.13693856  0.05493657    -0.77300
O1953       O  0.73842065  0.09421182  0.45701161    -0.78000
C1954       C  0.70097958  0.13298296  0.06127559     0.97300
O1955       O  0.72541730  0.09121994  0.05734000    -0.76000
O1956       O  0.65942578  0.10040414  0.49007734    -0.81200
C1957       C  0.66661311  0.05016564  0.46589295     0.99900
C1958       C  0.66513876  0.11071671  0.46350620     1.05800
O1959       O  0.68463619  0.06689953  0.45005566    -0.76800
C1960       C  0.70483268  0.07186706  0.06415793     1.04100
Fe1961     Fe  0.88467704  0.11890179  0.03094052     1.65800
Fe1962     Fe  0.91552173  0.08756047  0.01993813     1.73200
Fe1963     Fe  0.89474785  0.10636525  0.45683461     1.54400
O1964       O  0.85675839  0.09397930  0.45958150    -0.80500
O1965       O  0.94381441  0.10412923  0.48823817    -0.78800
O1966       O  0.85145627  0.10405229  0.00739027    -0.83000
O1967       O  0.89963013  0.15161025  0.00648215    -0.77900
O1968       O  0.88540666  0.06955195  0.44962874    -0.79700
O1969       O  0.93794769  0.11683139  0.04933412    -0.82400
C1970       C  0.90484334  0.15821698  0.47837963     0.98300
C1971       C  0.84320064  0.09521625  0.48070973     1.05800
O1972       O  0.89825651  0.10421063  0.00247568    -1.11400
O1973       O  0.88899831  0.06823751  0.05401564    -0.73800
O1974       O  0.86813347  0.08828941  0.05924870    -0.77300
O1975       O  0.90339730  0.14338681  0.45726885    -0.78000
C1976       C  0.87183694  0.07069079  0.06620435     0.97300
O1977       O  0.91605565  0.13546997  0.05791747    -0.76000
O1978       O  0.89603066  0.05672951  0.49224107    -0.81200
C1979       C  0.94833981  0.11554268  0.46251369     0.99900
C1980       C  0.88675858  0.05285106  0.46516831     1.05800
O1981       O  0.93241587  0.11923565  0.44862967    -0.76800
C1982       C  0.93506900  0.13341585  0.06228047     1.04100
Fe1983     Fe  0.87931939  0.26316244  0.02670320     1.65800
Fe1984     Fe  0.91438093  0.32627169  0.01956131     1.73200
Fe1985     Fe  0.89448113  0.28933237  0.45428375     1.54400
O1986       O  0.90576784  0.26318944  0.45486284    -0.80500
O1987       O  0.90066985  0.34140523  0.48813898    -0.78800
O1988       O  0.89169385  0.24421456  0.00061701    -0.83000
O1989       O  0.84651989  0.24868927  0.00230336    -0.77900
O1990       O  0.93166224  0.31677999  0.44848006    -0.79700
O1991       O  0.88460177  0.31921963  0.04777290    -0.82400
C1992       C  0.84104385  0.24806100  0.47385465     0.98300
C1993       C  0.90225835  0.24654811  0.47467349     1.05800
O1994       O  0.89611693  0.29295139  0.00011074    -1.11400
O1995       O  0.93126787  0.31572422  0.05338166    -0.73800
O1996       O  0.91015020  0.27419335  0.05409101    -0.77300
O1997       O  0.85708005  0.26117122  0.45330504    -0.78000
C1998       C  0.92824329  0.29500632  0.06288440     0.97300
O1999       O  0.86491207  0.27821124  0.05638346    -0.76000
O2000       O  0.94571714  0.33725263  0.49308043    -0.81200
C2001       C  0.88846797  0.33504309  0.46285643     0.99900
C2002       C  0.94913082  0.33310796  0.46530895     1.05800
O2003       O  0.88300787  0.31503417  0.44869517    -0.76800
C2004       C  0.86758747  0.29951741  0.06071171     1.04100
Fe2005     Fe  0.90435974  0.45408028  0.35947861     1.65800
Fe2006     Fe  0.84083729  0.42039415  0.35404041     1.73200
Fe2007     Fe  0.87727925  0.43912685  0.28784411     1.54400
O2008       O  0.90598514  0.47627012  0.28627948    -0.80500
O2009       O  0.82761913  0.38911364  0.32638802    -0.78800
O2010       O  0.91904193  0.48665664  0.33498091    -0.83000
O2011       O  0.92249391  0.44093621  0.33295761    -0.77900
O2012       O  0.85220765  0.45140470  0.28320925    -0.79700
O2013       O  0.85109402  0.40209760  0.38618951    -0.82400
C2014       C  0.91957188  0.43019738  0.30711150     0.98300
C2015       C  0.91929596  0.49221663  0.30667650     1.05800
O2016       O  0.87408102  0.43774007  0.33372910    -1.11400
O2017       O  0.84931119  0.44987626  0.38388663    -0.73800
O2018       O  0.89058764  0.46936576  0.38973209    -0.77300
O2019       O  0.90276572  0.42697905  0.28774820    -0.78000
C2020       C  0.86954071  0.46687983  0.39588201     0.97300
O2021       O  0.89280756  0.42336134  0.38677760    -0.76000
O2022       O  0.82685209  0.43622577  0.32418160    -0.81200
C2023       C  0.83193094  0.38532860  0.29879160     0.99900
C2024       C  0.83327036  0.44802548  0.29856484     1.05800
O2025       O  0.84920490  0.40230762  0.28230894    -0.76800
C2026       C  0.87195030  0.40516931  0.39541389     1.04100
Fe2027     Fe  0.54698358  0.44902337  0.36068220     1.65800
Fe2028     Fe  0.58002249  0.41993290  0.35177378     1.73200
Fe2029     Fe  0.55972664  0.43766287  0.28767583     1.54400
O2030       O  0.52290275  0.43006234  0.28884719    -0.80500
O2031       O  0.61098547  0.44042399  0.32438055    -0.78800
O2032       O  0.51309427  0.42947673  0.33863399    -0.83000
O2033       O  0.55793454  0.47982925  0.33336575    -0.77900
O2034       O  0.54611506  0.39974244  0.28228602    -0.79700
O2035       O  0.59797222  0.44729509  0.38541522    -0.82400
C2036       C  0.56917721  0.48858865  0.30785190     0.98300
C2037       C  0.50720428  0.42624748  0.31016691     1.05800
O2038       O  0.56233203  0.43557227  0.33330058    -1.11400
O2039       O  0.55060816  0.39710473  0.38101446    -0.73800
O2040       O  0.53407319  0.42045321  0.39212914    -0.77300
O2041       O  0.57319040  0.47576537  0.28844349    -0.78000
C2042       C  0.53546888  0.40107444  0.39602395     0.97300
O2043       O  0.57920859  0.46972133  0.38560581    -0.76000
O2044       O  0.56496323  0.39115389  0.32029172    -0.81200
C2045       C  0.61389809  0.44722604  0.29618305     0.99900
C2046       C  0.55182400  0.38508629  0.29575284     1.05800
O2047       O  0.59624528  0.44597120  0.27976684    -0.76800
C2048       C  0.59638065  0.46582041  0.39445797     1.04100
Fe2049     Fe  0.54675623  0.09562904  0.35980587     1.65800
Fe2050     Fe  0.58124066  0.15888624  0.35278357     1.73200
Fe2051     Fe  0.56274122  0.12170870  0.28733351     1.54400
O2052       O  0.57142614  0.09357096  0.28856964    -0.80500
O2053       O  0.56569556  0.17300272  0.32261332    -0.78800
O2054       O  0.56145288  0.07771484  0.33634183    -0.83000
O2055       O  0.51507449  0.07970636  0.33342572    -0.77900
O2056       O  0.60051365  0.14721849  0.28268325    -0.79700
O2057       O  0.55223635  0.15120808  0.38324721    -0.82400
C2058       C  0.50912877  0.08107525  0.30571296     0.98300
C2059       C  0.56997401  0.07845467  0.30949024     1.05800
O2060       O  0.56360175  0.12546872  0.33319831    -1.11400
O2061       O  0.59981060  0.14896939  0.38482011    -0.73800
O2062       O  0.57625890  0.10770588  0.38960642    -0.77300
O2063       O  0.52471627  0.09568861  0.28567532    -0.78000
C2064       C  0.59550203  0.12833598  0.39637363     0.97300
O2065       O  0.53007913  0.10978944  0.38653653    -0.76000
O2066       O  0.61200796  0.17130494  0.32466652    -0.81200
C2067       C  0.55662077  0.16796248  0.29538992     0.99900
C2068       C  0.61672819  0.16561717  0.29838505     1.05800
O2069       O  0.55408574  0.14940280  0.28008626    -0.76800
C2070       C  0.53387155  0.13110205  0.39366018     1.04100
C2071       C  0.58975738  0.05447153  0.32634881     0.24700
C2072       C  0.57744162  0.05997184  0.30298922    -0.23400
C2073       C  0.56779167  0.04421022  0.27704423     0.19600
C2074       C  0.56777558  0.02166589  0.27642018     0.24700
C2075       C  0.57750737  0.01495854  0.30166644    -0.23300
C2076       C  0.58985085  0.03217805  0.32561861     0.19600
F2077       F  0.59972204  0.02616524  0.35000818    -0.13300
F2078       F  0.59966317  0.06960786  0.35139504    -0.15600
F2079       F  0.55591567  0.50532577  0.25304299    -0.15600
F2080       F  0.55566272  0.04906303  0.25432800    -0.13300
C2081       C  0.94134420  0.03742923  0.31808480     0.24700
C2082       C  0.93740083  0.01815999  0.29778526    -0.23400
C2083       C  0.95488479  0.02309951  0.27409814     0.19600
C2084       C  0.97775124  0.04578488  0.27377834     0.24700
C2085       C  0.98305168  0.06353593  0.29704556    -0.23300
C2086       C  0.96405287  0.06000591  0.31769679     0.19600
F2087       F  0.96862989  0.07726717  0.33987005    -0.13300
F2088       F  0.92434376  0.03333698  0.34056399    -0.15600
F2089       F  0.49589487  0.04884605  0.25370884    -0.15600
F2090       F  0.95131966  0.50485179  0.25407332    -0.13300
C2091       C  0.93968289  0.40611404  0.32156765     0.24700
C2092       C  0.93720386  0.42176676  0.30012828    -0.23400
C2093       C  0.95558700  0.43407007  0.27722871     0.19600
C2094       C  0.97764751  0.43310951  0.27811713     0.24700
C2095       C  0.98148920  0.41995422  0.30209197    -0.23300
C2096       C  0.96165111  0.40515632  0.32253236     0.19600
F2097       F  0.96439019  0.39144783  0.34513833    -0.13300
F2098       F  0.92175333  0.39358465  0.34342606    -0.15600
F2099       F  0.49638857  0.44749843  0.25797979    -0.15600
F2100       F  0.95359599  0.44946524  0.25650119    -0.13300
C2101       C  0.86106219  0.34392911  0.42822435     0.24700
C2102       C  0.88152005  0.35243758  0.44875328    -0.23400
C2103       C  0.89659297  0.37826662  0.45424836     0.19600
C2104       C  0.89231193  0.39521358  0.43822679     0.24700
C2105       C  0.87278247  0.38684478  0.41646212    -0.23300
C2106       C  0.85665679  0.36102849  0.41229732     0.19600
F2107       F  0.83773977  0.35240840  0.39128129    -0.13300
F2108       F  0.84567839  0.31912644  0.42301401    -0.15600
F2109       F  0.90799982  0.42003465  0.44314380    -0.15600
F2110       F  0.91660289  0.38740522  0.47366058    -0.13300
C2111       C  0.00392257  0.35693824  0.40986908     0.24700
C2112       C  0.51755488  0.38231551  0.41798364    -0.23400
C2113       C  0.51068519  0.39038541  0.44457058     0.19600
C2114       C  0.98924472  0.37391104  0.46115707     0.24700
C2115       C  0.97417899  0.34898350  0.45141831    -0.23300
C2116       C  0.98225045  0.34039006  0.42637642     0.19600
F2117       F  0.96859519  0.31624269  0.41703849    -0.13300
F2118       F  0.01025519  0.34862480  0.38440156    -0.15600
F2119       F  0.48216976  0.38300698  0.48516949    -0.15600
F2120       F  0.52394527  0.41471380  0.45337256    -0.13300
C2121       C  0.98436165  0.10924264  0.45465173     0.24700
C2122       C  0.97270954  0.12306888  0.44773188    -0.23400
C2123       C  0.98385659  0.14249882  0.42558800     0.19600
C2124       C  0.00531522  0.14680708  0.40931306     0.24700
C2125       C  0.51556017  0.13153051  0.41490029    -0.23300
C2126       C  0.50540667  0.11341669  0.43847093     0.19600
F2127       F  0.51525087  0.09877637  0.44488284    -0.13300
F2128       F  0.97440441  0.09024526  0.47566057    -0.15600
F2129       F  0.01497337  0.16464931  0.38683360    -0.15600
F2130       F  0.97372846  0.15687523  0.41922619    -0.13300
C2131       C  0.85614678  0.49746768  0.41001695     0.24700
C2132       C  0.86946897  0.48538139  0.41721498    -0.23400
C2133       C  0.88597882  0.49381164  0.44259980     0.19600
C2134       C  0.89066243  0.01501498  0.45906834     0.24700
C2135       C  0.87871600  0.02828259  0.45060450    -0.23300
C2136       C  0.86082662  0.01879566  0.42652835     0.19600
F2137       F  0.84833488  0.03058689  0.41833105    -0.13300
F2138       F  0.84004097  0.48973492  0.38564061    -0.15600
F2139       F  0.90806997  0.02336498  0.48204530    -0.15600
F2140       F  0.89872566  0.48221230  0.45054381    -0.13300
C2141       C  0.92507669  0.20306094  0.49229016     0.24700
C2142       C  0.91140462  0.18399974  0.47064080    -0.23400
C2143       C  0.89973831  0.18870430  0.44559699     0.19600
C2144       C  0.89919866  0.21097042  0.44451517     0.24700
C2145       C  0.91036117  0.22857793  0.46839299    -0.23300
C2146       C  0.92454385  0.22515103  0.49115021     0.19600
F2147       F  0.93592115  0.24225387  0.51405750    -0.13300
F2148       F  0.93712756  0.19937231  0.51622173    -0.15600
F2149       F  0.88533028  0.21394566  0.42237019    -0.15600
F2150       F  0.88634762  0.17063458  0.42439620    -0.13300
C2151       C  0.62222019  0.10407889  0.45618689     0.24700
C2152       C  0.64798666  0.11789735  0.44919757    -0.23400
C2153       C  0.65665163  0.13745881  0.42731338     0.19600
C2154       C  0.63972609  0.14227555  0.41165856     0.24700
C2155       C  0.61385824  0.12743070  0.41740990    -0.23300
C2156       C  0.60539920  0.10880440  0.44048726     0.19600
F2157       F  0.58058680  0.09441417  0.44704864    -0.13300
F2158       F  0.61295092  0.08481413  0.47680713    -0.15600
F2159       F  0.64848131  0.16026952  0.38936493    -0.15600
F2160       F  0.68142862  0.15155280  0.42053757    -0.13300
C2161       C  0.65799112  0.01764240  0.42538059     0.24700
C2162       C  0.64993407  0.02548638  0.45129398    -0.23400
C2163       C  0.62465355  0.01103236  0.46056388     0.19600
C2164       C  0.60739812  0.49071902  0.44280896     0.24700
C2165       C  0.61523373  0.48398691  0.41597932    -0.23300
C2166       C  0.64079400  0.99698159  0.40791325     0.19600
F2167       F  0.64869829  0.99084449  0.38188315    -0.13300
F2168       F  0.68230842  0.03053830  0.41616551    -0.15600
F2169       F  0.58284924  0.47815503  0.45108939    -0.15600
F2170       F  0.61582798  0.51760468  0.48549355    -0.13300
C2171       C  0.77279998  0.20316627  0.98395884     0.24700
C2172       C  0.76975661  0.18398567  0.46406351    -0.23400
C2173       C  0.78798630  0.18918538  0.44132761     0.19600
C2174       C  0.81067356  0.21206909  0.44169804     0.24700
C2175       C  0.81513930  0.22973194  0.46484445    -0.23300
C2176       C  0.79540430  0.22588803  0.98442887     0.19600
F2177       F  0.79896472  0.24311061  0.00618408    -0.13300
F2178       F  0.75492337  0.19883241  0.00527081    -0.15600
F2179       F  0.82941128  0.21542993  0.42240224    -0.15600
F2180       F  0.78535281  0.17098039  0.42174293    -0.13300
C2181       C  0.78872801  0.09783034  0.44733855     0.24700
C2182       C  0.77207826  0.08838556  0.47254457    -0.23400
C2183       C  0.77657488  0.07591391  0.99669863     0.19600
C2184       C  0.79889033  0.07566000  0.99760357     0.24700
C2185       C  0.81696629  0.08769738  0.47422675    -0.23300
C2186       C  0.81110420  0.09742617  0.44813716     0.19600
F2187       F  0.82834249  0.10934595  0.42540478    -0.13300
F2188       F  0.78488065  0.11016365  0.42393215    -0.15600
F2189       F  0.80383376  0.06558597  0.02271547    -0.15600
F2190       F  0.76034997  0.06596273  0.02089070    -0.13300
C2191       C  0.93875929  0.27513086  0.10614659     0.24700
C2192       C  0.94674088  0.29452739  0.08420115    -0.23400
C2193       C  0.97257815  0.31128919  0.08033512     0.19600
C2194       C  0.99007211  0.30751491  0.09640227     0.24700
C2195       C  0.98201438  0.28715751  0.11700288    -0.23300
C2196       C  0.95614309  0.27156623  0.12248831     0.19600
F2197       F  0.94745011  0.25172392  0.14213390    -0.13300
F2198       F  0.91395553  0.25899002  0.11105753    -0.15600
F2199       F  0.51484967  0.32340216  0.09122512    -0.15600
F2200       F  0.98092595  0.33029746  0.05945431    -0.13300
C2201       C  0.97942788  0.16634716  0.07321749     0.24700
C2202       C  0.95441810  0.15179914  0.08300989    -0.23400
C2203       C  0.94680177  0.15803130  0.11041194     0.19600
C2204       C  0.96316016  0.17970230  0.12637039     0.24700
C2205       C  0.98761087  0.19566706  0.11519370    -0.23300
C2206       C  0.99595240  0.18828968  0.08914892     0.19600
F2207       F  0.51973664  0.20276873  0.07843018    -0.13300
F2208       F  0.98726032  0.16047153  0.04691578    -0.15600
F2209       F  0.95424971  0.18598212  0.15132312    -0.15600
F2210       F  0.92286185  0.14381774  0.12070217    -0.13300
C2211       C  0.55298217  0.32682113  0.27431303     0.24700
C2212       C  0.53652107  0.31785518  0.24898486    -0.23400
C2213       C  0.52236280  0.32900543  0.24162256     0.19600
C2214       C  0.52628202  0.35023316  0.25774898     0.24700
C2215       C  0.54426123  0.36042613  0.28172111    -0.23300
C2216       C  0.55671779  0.34769708  0.29063081     0.19600
F2217       F  0.57383629  0.35623632  0.31393870    -0.13300
F2218       F  0.06628336  0.31587536  0.28251823    -0.15600
F2219       F  0.51312831  0.36124268  0.24911850    -0.15600
F2220       F  0.50615991  0.32054407  0.21733613    -0.13300
C2221       C  0.52698143  0.19411211  0.24121681     0.24700
C2222       C  0.54152998  0.21980618  0.24761788    -0.23400
C2223       C  0.55950435  0.22791980  0.27141359     0.19600
C2224       C  0.56357426  0.21089234  0.28772879     0.24700
C2225       C  0.54993539  0.18528219  0.28040382    -0.23300
C2226       C  0.53130195  0.17699823  0.25728462     0.19600
F2227       F  0.51763751  0.15242323  0.24976094    -0.13300
F2228       F  0.00976617  0.18573326  0.21798763    -0.15600
F2229       F  0.58206381  0.21980373  0.30937188    -0.15600
F2230       F  0.57377648  0.25259481  0.27826506    -0.13300
C2231       C  0.69813109  0.01147581  0.09322038     0.24700
C2232       C  0.71667990  0.02027742  0.11644377    -0.23400
C2233       C  0.72888835  0.04568998  0.12474270     0.19600
C2234       C  0.72361553  0.06212948  0.10911039     0.24700
C2235       C  0.70597752  0.05358995  0.08492364    -0.23300
C2236       C  0.69271077  0.02799962  0.07771210     0.19600
F2237       F  0.67581362  0.01929391  0.05416752    -0.13300
F2238       F  0.68563329  0.98701045  0.08504480    -0.15600
F2239       F  0.73651859  0.08670558  0.11684510    -0.15600
F2240       F  0.74715692  0.05507717  0.14668428    -0.13300
C2241       C  0.84170671  0.02658200  0.08133246     0.24700
C2242       C  0.85447506  0.05209146  0.08863073    -0.23400
C2243       C  0.84720997  0.06020114  0.11475461     0.19600
C2244       C  0.82593356  0.04354047  0.13153890     0.24700
C2245       C  0.81126731  0.01842696  0.12214464    -0.23300
C2246       C  0.82012134  0.00983719  0.09784959     0.19600
F2247       F  0.80743085  0.48549589  0.08930157    -0.13300
F2248       F  0.84873068  0.01827668  0.05647020    -0.15600
F2249       F  0.81867374  0.05262246  0.15533498    -0.15600
F2250       F  0.85991152  0.08469725  0.12287000    -0.13300
C2251       C  0.65270104  0.44491393  0.29147631     0.24700
C2252       C  0.63856179  0.45558145  0.28163019    -0.23400
C2253       C  0.64750420  0.47271473  0.25668233     0.19600
C2254       C  0.66949798  0.47804791  0.24097589     0.24700
C2255       C  0.68250972  0.46595645  0.24966751    -0.23300
C2256       C  0.67433049  0.44998387  0.27559452     0.19600
F2257       F  0.68677579  0.43834578  0.28475244    -0.13300
F2258       F  0.64466835  0.42808666  0.31514819    -0.15600
F2259       F  0.67703762  0.49358797  0.21599233    -0.15600
F2260       F  0.63465603  0.48379910  0.24703269    -0.13300
C2261       C  0.79263582  0.44756328  0.29655949     0.24700
C2262       C  0.81726570  0.45715699  0.28544014    -0.23400
C2263       C  0.82548376  0.47386179  0.25999772     0.19600
C2264       C  0.80878937  0.47893295  0.24440094     0.24700
C2265       C  0.78366168  0.46721859  0.25376382    -0.23300
C2266       C  0.77595908  0.45233490  0.28059030     0.19600
F2267       F  0.75183853  0.44136508  0.29043116    -0.13300
F2268       F  0.78400299  0.43217027  0.32166550    -0.15600
F2269       F  0.81674242  0.99376581  0.21875109    -0.15600
F2270       F  0.84945497  0.98472318  0.24952961    -0.13300
C2271       C  0.63377559  0.39513542  0.15372559     0.24700
C2272       C  0.65291509  0.39885942  0.13320697    -0.23400
C2273       C  0.64786219  0.38128389  0.10980139     0.19600
C2274       C  0.62486943  0.35874222  0.10946359     0.24700
C2275       C  0.60694222  0.35375702  0.13257090    -0.23300
C2276       C  0.61093838  0.37266991  0.15348586     0.19600
F2277       F  0.59376708  0.36830224  0.17583495    -0.13300
F2278       F  0.63822702  0.41216533  0.17616772    -0.16500
F2279       F  0.62162440  0.34051634  0.08950426    -0.15600
F2280       F  0.66630536  0.38435858  0.09015900    -0.13300
C2281       C  0.82227438  0.28402265  0.12597331     0.24700
C2282       C  0.80596079  0.29134444  0.11340664    -0.23400
C2283       C  0.81272543  0.30509807  0.08533669     0.19600
C2284       C  0.83425765  0.30975283  0.06927175     0.24700
C2285       C  0.84919396  0.30061047  0.08084154    -0.23300
C2286       C  0.84351182  0.28844851  0.10966530     0.19600
F2287       F  0.85795855  0.27972747  0.12133200    -0.13300
F2288       F  0.81697639  0.27109240  0.15308838    -0.15600
F2289       F  0.83930230  0.32128117  0.04115139    -0.15600
F2290       F  0.79795942  0.31302537  0.07255662    -0.13300
C2291       C  0.68917123  0.16518271  0.07164554     0.24700
C2292       C  0.69988608  0.15125167  0.08181520    -0.23400
C2293       C  0.71384201  0.15806931  0.10937805     0.19600
C2294       C  0.71844334  0.17935647  0.12556911     0.24700
C2295       C  0.70956219  0.19472121  0.11417950    -0.23300
C2296       C  0.69397242  0.18678511  0.08765455     0.19600
F2297       F  0.68415334  0.20038617  0.07646281    -0.13300
F2298       F  0.67580610  0.15908013  0.04484774    -0.15600
F2299       F  0.73309063  0.18569248  0.15128506    -0.15600
F2300       F  0.72422714  0.14474536  0.11975318    -0.13300
C2301       C  0.78994868  0.34638315  0.29288346     0.24700
C2302       C  0.81540102  0.36052690  0.28449648    -0.23400
C2303       C  0.82416056  0.35188204  0.26020379     0.19600
C2304       C  0.80749081  0.33059340  0.24325137     0.24700
C2305       C  0.78175503  0.31779328  0.25005667    -0.23300
C2306       C  0.77331856  0.32533529  0.27573951     0.19600
F2307       F  0.74864922  0.31286377  0.28346993    -0.13300
F2308       F  0.78069460  0.35391134  0.31621448    -0.15600
F2309       F  0.81623723  0.32368334  0.21873183    -0.15600
F2310       F  0.84875203  0.36452456  0.25216248    -0.13300
C2311       C  0.65454464  0.20797029  0.29221386     0.24700
C2312       C  0.64157153  0.18243420  0.28442334    -0.23400
C2313       C  0.65102553  0.17418343  0.26049492     0.19600
C2314       C  0.67188941  0.19143236  0.24320111     0.24700
C2315       C  0.68328725  0.21707358  0.24942485    -0.23300
C2316       C  0.67508228  0.22506857  0.27476871     0.19600
F2317       F  0.68616979  0.24976042  0.28159691    -0.13300
F2318       F  0.64614348  0.21686747  0.31497626    -0.15600
F2319       F  0.67957705  0.18330728  0.21881168    -0.15600
F2320       F  0.63941757  0.14961777  0.25290231    -0.13300
C2321       C  0.73701105  0.35854395  0.11104511     0.24700
C2322       C  0.74702511  0.35163572  0.13580716    -0.23400
C2323       C  0.76037522  0.36907924  0.15926791     0.19600
C2324       C  0.76060375  0.39155834  0.16039032     0.24700
C2325       C  0.74766943  0.39705081  0.13791321    -0.23300
C2326       C  0.73731069  0.38122602  0.11210659     0.19600
F2327       F  0.72478497  0.38615726  0.09001328    -0.13300
F2328       F  0.72425521  0.34211023  0.08795625    -0.15600
F2329       F  0.77154668  0.40695691  0.18498599    -0.15600
F2330       F  0.77109678  0.36322678  0.18282162    -0.13300
C2331       C  0.63016372  0.24042283  0.15165744     0.24700
C2332       C  0.64967990  0.25528500  0.13099234    -0.23400
C2333       C  0.64558361  0.26818862  0.10699963     0.19600
C2334       C  0.62352554  0.26912039  0.10656378     0.24700
C2335       C  0.60558921  0.25704622  0.13001893    -0.23300
C2336       C  0.60817529  0.24123967  0.15109626     0.19600
F2337       F  0.59052894  0.22873154  0.17326721    -0.13300
F2338       F  0.63347439  0.22719387  0.17440802    -0.15600
F2339       F  0.62127185  0.28443520  0.08596553    -0.15600
F2340       F  0.66422794  0.28263572  0.08675800    -0.13300
Fe2341     Fe  0.71418408  0.28429816  0.69274400     1.65800
Fe2342     Fe  0.74679384  0.25447590  0.68402542     1.73200
Fe2343     Fe  0.72758474  0.27340599  0.61944863     1.54400
O2344       O  0.69016783  0.26275451  0.61910260    -0.80500
O2345       O  0.77680681  0.27218450  0.65438904    -0.78800
O2346       O  0.68196383  0.26942687  0.66715687    -0.83000
O2347       O  0.73002433  0.31726682  0.66892691    -0.77900
O2348       O  0.71660075  0.23614833  0.61286029    -0.79700
O2349       O  0.76724201  0.28338074  0.71520235    -0.82400
C2350       C  0.73827098  0.32509395  0.64187041     0.98300
C2351       C  0.67536606  0.26241937  0.63948574     1.05800
O2352       O  0.72951584  0.27068693  0.66532579    -1.11400
O2353       O  0.71875520  0.23401816  0.71617128    -0.73800
O2354       O  0.69685595  0.25314274  0.71989075    -0.77300
O2355       O  0.73835410  0.31106525  0.62060169    -0.78000
C2356       C  0.70083205  0.23579463  0.72723559     0.97300
O2357       O  0.74416943  0.30092581  0.72225957    -0.76000
O2358       O  0.72883863  0.22414292  0.65482507    -0.81200
C2359       C  0.78113567  0.28250925  0.62791202     0.99900
C2360       C  0.71850156  0.21970916  0.62827217     1.05800
O2361       O  0.76468432  0.28451057  0.61285774    -0.76800
C2362       C  0.76329756  0.29936359  0.72808088     1.04100
Fe2363     Fe  0.71679860  0.43208638  0.69591701     1.65800
Fe2364     Fe  0.74922989  0.99556548  0.68855295     1.73200
Fe2365     Fe  0.73196454  0.45821647  0.62328482     1.54400
O2366       O  0.74085845  0.43025369  0.62425574    -0.80500
O2367       O  0.73321775  0.00883398  0.65830802    -0.78800
O2368       O  0.73265311  0.41512421  0.67243809    -0.83000
O2369       O  0.68519234  0.41516535  0.66923936    -0.77900
O2370       O  0.76976695  0.48388243  0.61931933    -0.79700
O2371       O  0.71934892  0.48654583  0.71836516    -0.82400
C2372       C  0.67890915  0.41672123  0.64172353     0.98300
C2373       C  0.74034534  0.41556341  0.64514354     1.05800
O2374       O  0.73263188  0.46193398  0.66915914    -1.11400
O2375       O  0.76817325  0.98688500  0.72101900    -0.73800
O2376       O  0.74636473  0.44535607  0.72590337    -0.77300
O2377       O  0.69406851  0.43194418  0.62176908    -0.78000
C2378       C  0.76478535  0.46658183  0.73265689     0.97300
O2379       O  0.69897601  0.44513274  0.72283160    -0.76000
O2380       O  0.78048690  0.00851423  0.66082850    -0.81200
C2381       C  0.72440716  0.00370004  0.63106103     0.99900
C2382       C  0.78578179  0.00242070  0.63513633     1.05800
O2383       O  0.72282339  0.48552425  0.61560940    -0.76800
C2384       C  0.70159733  0.46613930  0.72918121     1.04100
Fe2385     Fe  0.57304193  0.28794448  0.69184888     1.65800
Fe2386     Fe  0.00969294  0.25368617  0.68546433     1.73200
Fe2387     Fe  0.54626632  0.27548674  0.61958294     1.54400
O2388       O  0.57381069  0.31302014  0.61973385    -0.80500
O2389       O  0.99862402  0.22357494  0.65706440    -0.78800
O2390       O  0.58893893  0.32087683  0.66787630    -0.83000
O2391       O  0.59044807  0.27427927  0.66513852    -0.77900
O2392       O  0.51971379  0.28607038  0.61554704    -0.79700
O2393       O  0.52002969  0.23515785  0.71711253    -0.82400
C2394       C  0.58843781  0.26577185  0.63798422     0.98300
C2395       C  0.58836871  0.32774387  0.64038246     1.05800
O2396       O  0.54297720  0.27244121  0.66554395    -1.11400
O2397       O  0.51729839  0.28238625  0.71594025    -0.73800
O2398       O  0.55877757  0.30306322  0.72165121    -0.77300
O2399       O  0.57297686  0.26501302  0.61810477    -0.78000
C2400       C  0.53736284  0.29978018  0.72782193     0.97300
O2401       O  0.56153045  0.25719293  0.71931595    -0.76000
O2402       O  0.99422727  0.26851462  0.65600849    -0.81200
C2403       C  0.00316223  0.22060646  0.62928002     0.99900
C2404       C  0.99995273  0.28058694  0.63057285     1.05800
O2405       O  0.51955822  0.23833511  0.61273843    -0.76800
C2406       C  0.54077492  0.23847699  0.72700147     1.04100
Fe2407     Fe  0.73709387  0.12074934  0.52765232     1.65800
Fe2408     Fe  0.67371107  0.08534236  0.52055139     1.73200
Fe2409     Fe  0.71116190  0.10428183  0.95519334     1.54400
O2410       O  0.73829555  0.14197967  0.95308842    -0.80500
O2411       O  0.66135803  0.05425294  0.99286311    -0.78800
O2412       O  0.75253674  0.15248333  0.50131590    -0.83000
O2413       O  0.75541863  0.10654748  0.50393923    -0.77900
O2414       O  0.68425763  0.11421313  0.94841856    -0.79700
O2415       O  0.68405303  0.06734495  0.55280810    -0.82400
C2416       C  0.75397948  0.09662664  0.97789819     0.98300
C2417       C  0.75207416  0.15796931  0.97316865     1.05800
O2418       O  0.70726020  0.10341461  0.50102631    -1.11400
O2419       O  0.68110512  0.11458108  0.55045414    -0.73800
O2420       O  0.72257695  0.13695786  0.55489274    -0.77300
O2421       O  0.73839689  0.09420391  0.95702733    -0.78000
C2422       C  0.70100168  0.13298893  0.56125087     0.97300
O2423       O  0.72542854  0.09123685  0.55734199    -0.76000
O2424       O  0.65940853  0.10039758  0.99008597    -0.81200
C2425       C  0.66659648  0.05016982  0.96590324     0.99900
C2426       C  0.66513181  0.11072744  0.96352500     1.05800
O2427       O  0.68461270  0.06690973  0.95006308    -0.76800
C2428       C  0.70484663  0.07187776  0.56414995     1.04100
Fe2429     Fe  0.88469854  0.11891963  0.53094903     1.65800
Fe2430     Fe  0.91554778  0.08757922  0.51995535     1.73200
Fe2431     Fe  0.89472875  0.10635841  0.95682321     1.54400
O2432       O  0.85673690  0.09396310  0.95956512    -0.80500
O2433       O  0.94377760  0.10409448  0.98820699    -0.78800
O2434       O  0.85146816  0.10404727  0.50741479    -0.83000
O2435       O  0.89963076  0.15161789  0.50647002    -0.77900
O2436       O  0.88539626  0.06954743  0.94960889    -0.79700
O2437       O  0.93795758  0.11684122  0.54937014    -0.82400
C2438       C  0.90482984  0.15820965  0.97839012     0.98300
C2439       C  0.84318414  0.09521274  0.98068978     1.05800
O2440       O  0.89827906  0.10422531  0.50248812    -1.11400
O2441       O  0.88901113  0.06824328  0.55401434    -0.73800
O2442       O  0.86817393  0.08832015  0.55928225    -0.77300
O2443       O  0.90336904  0.14337791  0.95727184    -0.78000
C2444       C  0.87186311  0.07070927  0.56622078     0.97300
O2445       O  0.91608660  0.13550859  0.55790657    -0.76000
O2446       O  0.89598302  0.05670657  0.99223672    -0.81200
C2447       C  0.94831389  0.11552694  0.96249581     0.99900
C2448       C  0.88672564  0.05283655  0.96515598     1.05800
O2449       O  0.93239925  0.11923975  0.94862297    -0.76800
C2450       C  0.93508846  0.13343926  0.56229396     1.04100
Fe2451     Fe  0.87932544  0.26315531  0.52669364     1.65800
Fe2452     Fe  0.91438686  0.32626880  0.51955778     1.73200
Fe2453     Fe  0.89447911  0.28932972  0.95429491     1.54400
O2454       O  0.90578410  0.26320225  0.95488453    -0.80500
O2455       O  0.90067333  0.34140500  0.98812644    -0.78800
O2456       O  0.89172907  0.24422802  0.50062030    -0.83000
O2457       O  0.84653230  0.24866206  0.50227445    -0.77900
O2458       O  0.93165644  0.31679010  0.94848692    -0.79700
O2459       O  0.88461346  0.31920834  0.54778518    -0.82400
C2460       C  0.84103824  0.24806555  0.97387758     0.98300
C2461       C  0.90224627  0.24654524  0.97468482     1.05800
O2462       O  0.89612070  0.29294857  0.50010269    -1.11400
O2463       O  0.93128586  0.31572242  0.55336205    -0.73800
O2464       O  0.91014418  0.27419264  0.55411125    -0.77300
O2465       O  0.85708177  0.26115344  0.95332292    -0.78000
C2466       C  0.92824839  0.29500487  0.56288689     0.97300
O2467       O  0.86489287  0.27819176  0.55635283    -0.76000
O2468       O  0.94571564  0.33724570  0.99309787    -0.81200
C2469       C  0.88845842  0.33503287  0.96285367     0.99900
C2470       C  0.94912706  0.33310994  0.96532157     1.05800
O2471       O  0.88298843  0.31501673  0.94870386    -0.76800
C2472       C  0.86758319  0.29950207  0.56069929     1.04100
Fe2473     Fe  0.90435927  0.45405945  0.85948580     1.65800
Fe2474     Fe  0.84083518  0.42039066  0.85404323     1.73200
Fe2475     Fe  0.87728024  0.43911782  0.78784511     1.54400
O2476       O  0.90597181  0.47626871  0.78628460    -0.80500
O2477       O  0.82760533  0.38911552  0.82637845    -0.78800
O2478       O  0.91906729  0.48663218  0.83497768    -0.83000
O2479       O  0.92247599  0.44088785  0.83298327    -0.77900
O2480       O  0.85219247  0.45137685  0.78320021    -0.79700
O2481       O  0.85107687  0.40207756  0.88618166    -0.82400
C2482       C  0.91956847  0.43017403  0.80712193     0.98300
C2483       C  0.91930166  0.49220475  0.80668209     1.05800
O2484       O  0.87408073  0.43772990  0.83373195    -1.11400
O2485       O  0.84931976  0.44987011  0.88390086    -0.73800
O2486       O  0.89059951  0.46936890  0.88971829    -0.77300
O2487       O  0.90278227  0.42698763  0.78774421    -0.78000
C2488       C  0.86955362  0.46688109  0.89587985     0.97300
O2489       O  0.89278929  0.42334697  0.88680050    -0.76000
O2490       O  0.82685889  0.43623397  0.82419596    -0.81200
C2491       C  0.83192889  0.38532175  0.79879137     0.99900
C2492       C  0.83326392  0.44801140  0.79856463     1.05800
O2493       O  0.84921801  0.40229131  0.78231461    -0.76800
C2494       C  0.87192963  0.40515143  0.89542173     1.04100
Fe2495     Fe  0.54697879  0.44901107  0.86068070     1.65800
Fe2496     Fe  0.58002464  0.41992628  0.85177909     1.73200
Fe2497     Fe  0.55971944  0.43764305  0.78768047     1.54400
O2498       O  0.52289607  0.43005019  0.78885360    -0.80500
O2499       O  0.61098766  0.44041940  0.82438612    -0.78800
O2500       O  0.51308612  0.42945458  0.83864120    -0.83000
O2501       O  0.55792078  0.47981131  0.83335239    -0.77900
O2502       O  0.54610312  0.39972214  0.78230572    -0.79700
O2503       O  0.59796955  0.44729148  0.88541777    -0.82400
C2504       C  0.56916579  0.48856741  0.80783852     0.98300
C2505       C  0.50719697  0.42623406  0.81017379     1.05800
O2506       O  0.56232910  0.43555962  0.83330370    -1.11400
O2507       O  0.55061099  0.39709709  0.88101875    -0.73800
O2508       O  0.53407784  0.42044682  0.89213707    -0.77300
O2509       O  0.57318651  0.47574413  0.78843922    -0.78000
C2510       C  0.53547311  0.40106744  0.89603026     0.97300
O2511       O  0.57920621  0.46971836  0.88559429    -0.76000
O2512       O  0.56496991  0.39114477  0.82029923    -0.81200
C2513       C  0.61389497  0.44721024  0.79618454     0.99900
C2514       C  0.55182102  0.38507125  0.79576801     1.05800
O2515       O  0.59623800  0.44594637  0.77976756    -0.76800
C2516       C  0.59637807  0.46581896  0.89445133     1.04100
Fe2517     Fe  0.54676468  0.09563797  0.85980052     1.65800
Fe2518     Fe  0.58124933  0.15889491  0.85276448     1.73200
Fe2519     Fe  0.56274183  0.12170693  0.78732322     1.54400
O2520       O  0.57143072  0.09357135  0.78856719    -0.80500
O2521       O  0.56569866  0.17300549  0.82259213    -0.78800
O2522       O  0.56146523  0.07772365  0.83634403    -0.83000
O2523       O  0.51508108  0.07970509  0.83342162    -0.77900
O2524       O  0.60051093  0.14721655  0.78266479    -0.79700
O2525       O  0.55224981  0.15122046  0.88323645    -0.82400
C2526       C  0.50913412  0.08106909  0.80570782     0.98300
C2527       C  0.56998374  0.07845968  0.80949175     1.05800
O2528       O  0.56360721  0.12547400  0.83318702    -1.11400
O2529       O  0.59982307  0.14898430  0.88480364    -0.73800
O2530       O  0.57626684  0.10772250  0.88960264    -0.77300
O2531       O  0.52471900  0.09568368  0.78566948    -0.78000
C2532       C  0.59551080  0.12835265  0.89636727     0.97300
O2533       O  0.53008749  0.10980144  0.88652458    -0.76000
O2534       O  0.61201425  0.17130880  0.82464149    -0.81200
C2535       C  0.55661947  0.16796142  0.79537074     0.99900
C2536       C  0.61673032  0.16561555  0.79836085     1.05800
O2537       O  0.55408317  0.14939913  0.78007121    -0.76800
C2538       C  0.53388494  0.13111525  0.89365221     1.04100
C2539       C  0.58975882  0.05446866  0.82635760     0.24700
C2540       C  0.57745178  0.05997611  0.80299330    -0.23400
C2541       C  0.56781176  0.04422170  0.77704060     0.19600
C2542       C  0.56779446  0.02167670  0.77641277     0.24700
C2543       C  0.57751654  0.01496180  0.80166217    -0.23300
C2544       C  0.58985246  0.03217517  0.82562261     0.19600
F2545       F  0.59971635  0.02615599  0.85001430    -0.13300
F2546       F  0.59965677  0.06959806  0.85141107    -0.15600
F2547       F  0.55584965  0.50526569  0.75304666    -0.15600
F2548       F  0.55569317  0.04908204  0.75431819    -0.13300
C2549       C  0.94132442  0.03744167  0.81810231     0.24700
C2550       C  0.93738472  0.01816957  0.79780959    -0.23400
C2551       C  0.95487817  0.02310358  0.77413691     0.19600
C2552       C  0.97774535  0.04578762  0.77382161     0.24700
C2553       C  0.98303955  0.06354317  0.79708024    -0.23300
C2554       C  0.96403563  0.06001662  0.81772078     0.19600
F2555       F  0.96860826  0.07727978  0.83988961    -0.13300
F2556       F  0.92431705  0.03335362  0.84057016    -0.15600
F2557       F  0.49591619  0.04881855  0.75373014    -0.15600
F2558       F  0.95131505  0.50486737  0.75406353    -0.13300
C2559       C  0.93968570  0.40609574  0.82158023     0.24700
C2560       C  0.93719793  0.42174000  0.80013527    -0.23400
C2561       C  0.95557181  0.43403288  0.77722232     0.19600
C2562       C  0.97763551  0.43307772  0.77810788     0.24700
C2563       C  0.98148856  0.41993764  0.80209219    -0.23300
C2564       C  0.96165617  0.40514231  0.82254048     0.19600
F2565       F  0.96440416  0.39144246  0.84515055    -0.13300
F2566       F  0.92176343  0.39357187  0.84344838    -0.15600
F2567       F  0.49639393  0.44751017  0.75800196    -0.15600
F2568       F  0.95357053  0.44941573  0.75648468    -0.13300
C2569       C  0.86105736  0.34391187  0.92820282     0.24700
C2570       C  0.88150379  0.35242237  0.94875123    -0.23400
C2571       C  0.89655747  0.37825009  0.95427082     0.19600
C2572       C  0.89227049  0.39519455  0.93825465     0.24700
C2573       C  0.87275596  0.38682498  0.91646933    -0.23300
C2574       C  0.85664754  0.36100918  0.91227922     0.19600
F2575       F  0.83774602  0.35238956  0.89124104    -0.13300
F2576       F  0.84569058  0.31911018  0.92296802    -0.15600
F2577       F  0.90794044  0.42001542  0.94319510    -0.15600
F2578       F  0.91655542  0.38739226  0.97370295    -0.13300
C2579       C  0.00392835  0.35693969  0.90989797     0.24700
C2580       C  0.51755879  0.38230740  0.91798843    -0.23400
C2581       C  0.51069013  0.39037579  0.94457761     0.19600
C2582       C  0.98923123  0.37391862  0.96116175     0.24700
C2583       C  0.97417499  0.34898743  0.95143328    -0.23300
C2584       C  0.98225578  0.34039104  0.92640470     0.19600
F2585       F  0.96860981  0.31623939  0.91708057    -0.13300
F2586       F  0.01027201  0.34862205  0.88444408    -0.15600
F2587       F  0.48217157  0.38299554  0.98517426    -0.15600
F2588       F  0.52395290  0.41470290  0.95338422    -0.13300
C2589       C  0.98435010  0.10924428  0.95465758     0.24700
C2590       C  0.97268785  0.12305864  0.94772143    -0.23400
C2591       C  0.98383343  0.14248675  0.92557453     0.19600
C2592       C  0.00530114  0.14680481  0.90931393     0.24700
C2593       C  0.51557959  0.13154499  0.91490230    -0.23300
C2594       C  0.50542729  0.11342753  0.93846951     0.19600
F2595       F  0.51527230  0.09878668  0.94487370    -0.13300
F2596       F  0.97439457  0.09024675  0.97566628    -0.15600
F2597       F  0.01495557  0.16464126  0.88682733    -0.15600
F2598       F  0.97369434  0.15685041  0.91919339    -0.13300
C2599       C  0.85615723  0.49746697  0.91001890     0.24700
C2600       C  0.86948833  0.48538840  0.91720859    -0.23400
C2601       C  0.88601216  0.49383108  0.94257920     0.19600
C2602       C  0.89058492  0.01497125  0.95908967     0.24700
C2603       C  0.87867131  0.02826424  0.95059468    -0.23300
C2604       C  0.86080276  0.01879604  0.92649398     0.19600
F2605       F  0.84834023  0.03061054  0.91826668    -0.13300
F2606       F  0.84004023  0.48972402  0.88565374    -0.15600
F2607       F  0.90796934  0.02330006  0.98209300    -0.15600
F2608       F  0.89876949  0.48224065  0.95051416    -0.13300
C2609       C  0.92505575  0.20305200  0.99231392     0.24700
C2610       C  0.91138953  0.18399348  0.97065849    -0.23400
C2611       C  0.89972738  0.18870074  0.94561214     0.19600
C2612       C  0.89918761  0.21096667  0.94453082     0.24700
C2613       C  0.91034589  0.22857190  0.96841140    -0.23300
C2614       C  0.92452217  0.22514185  0.99117458     0.19600
F2615       F  0.93589381  0.24224210  0.01408591    -0.13300
F2616       F  0.93710257  0.19936169  0.01624903    -0.15600
F2617       F  0.88532399  0.21394455  0.92238153    -0.15600
F2618       F  0.88634076  0.17063365  0.92440687    -0.13300
C2619       C  0.62221406  0.10408710  0.95618933     0.24700
C2620       C  0.64798314  0.11791298  0.94921741    -0.23400
C2621       C  0.65665431  0.13748582  0.92734868     0.19600
C2622       C  0.63973209  0.14230327  0.91168618     0.24700
C2623       C  0.61386173  0.12744812  0.91741506    -0.23300
C2624       C  0.60539670  0.10881389  0.94048328     0.19600
F2625       F  0.58058208  0.09441631  0.94702846    -0.13300
F2626       F  0.61293931  0.08481384  0.97679734    -0.15600
F2627       F  0.64849440  0.16030899  0.88940721    -0.15600
F2628       F  0.68143451  0.15159026  0.92059482    -0.13300
C2629       C  0.65798443  0.01764147  0.92540125     0.24700
C2630       C  0.64991837  0.02549261  0.95129895    -0.23400
C2631       C  0.62463240  0.01104786  0.96054813     0.19600
C2632       C  0.60739589  0.49072272  0.94279691     0.24700
C2633       C  0.61523100  0.48398967  0.91596774    -0.23300
C2634       C  0.64079226  0.99697915  0.90793086     0.19600
F2635       F  0.64870655  0.99083402  0.88191619    -0.13300
F2636       F  0.68230675  0.03053110  0.91620571    -0.15600
F2637       F  0.58284722  0.47815875  0.95107844    -0.15600
F2638       F  0.61582659  0.51761225  0.98547747    -0.13300
C2639       C  0.77280857  0.20315604  0.48393777     0.24700
C2640       C  0.76974893  0.18398910  0.96409769    -0.23400
C2641       C  0.78798165  0.18917994  0.94136967     0.19600
C2642       C  0.81067010  0.21206187  0.94173601     0.24700
C2643       C  0.81513392  0.22973369  0.96486898    -0.23300
C2644       C  0.79541219  0.22587786  0.48441401     0.19600
F2645       F  0.79897531  0.24309100  0.50618444    -0.13300
F2646       F  0.75493492  0.19881330  0.50525848    -0.15600
F2647       F  0.82941023  0.21541257  0.92245154    -0.15600
F2648       F  0.78534954  0.17096792  0.92179856    -0.13300
C2649       C  0.78870506  0.09782289  0.94733070     0.24700
C2650       C  0.77206681  0.08839418  0.97254977    -0.23400
C2651       C  0.77657907  0.07589600  0.49668895     0.19600
C2652       C  0.79889875  0.07564975  0.49760477     0.24700
C2653       C  0.81694899  0.08769420  0.97421305    -0.23300
C2654       C  0.81107903  0.09741329  0.94812026     0.19600
F2655       F  0.82830754  0.10931705  0.92537335    -0.13300
F2656       F  0.78484872  0.11014402  0.92391687    -0.15600
F2657       F  0.80383538  0.06556803  0.52271433    -0.15600
F2658       F  0.76034239  0.06592866  0.52086759    -0.13300
C2659       C  0.93876421  0.27514431  0.60617297     0.24700
C2660       C  0.94674636  0.29452606  0.58420514    -0.23400
C2661       C  0.97258427  0.31127403  0.58032038     0.19600
C2662       C  0.99007675  0.30749983  0.59639070     0.24700
C2663       C  0.98201856  0.28715604  0.61701427    -0.23300
C2664       C  0.95614767  0.27157993  0.62251880     0.19600
F2665       F  0.94745370  0.25175284  0.64218944    -0.13300
F2666       F  0.91396015  0.25901877  0.61110420    -0.15600
F2667       F  0.51486711  0.32337499  0.59113781    -0.15600
F2668       F  0.98093350  0.33026795  0.55941830    -0.13300
C2669       C  0.97945146  0.16634572  0.57326255     0.24700
C2670       C  0.95443351  0.15181621  0.58303176    -0.23400
C2671       C  0.94681029  0.15805798  0.61042061     0.19600
C2672       C  0.96317146  0.17972364  0.62638511     0.24700
C2673       C  0.98763102  0.19567268  0.61522723    -0.23300
C2674       C  0.99597896  0.18828330  0.58920040     0.19600
F2675       F  0.51971916  0.20274058  0.57843485    -0.13300
F2676       F  0.98729108  0.16045788  0.54697665    -0.15600
F2677       F  0.95425668  0.18601682  0.65132135    -0.15600
F2678       F  0.92286246  0.14386031  0.62069036    -0.13300
C2679       C  0.55299062  0.32681737  0.77430489     0.24700
C2680       C  0.53653169  0.31785755  0.74897439    -0.23400
C2681       C  0.52236711  0.32900285  0.74162376     0.19600
C2682       C  0.52627880  0.35022187  0.75776358     0.24700
C2683       C  0.54425842  0.36041205  0.78173544    -0.23300
C2684       C  0.55671887  0.34768501  0.79063632     0.19600
F2685       F  0.57383341  0.35621857  0.81394866    -0.13300
F2686       F  0.06638804  0.31595098  0.78246338    -0.15600
F2687       F  0.51311804  0.36122686  0.74914563    -0.15600
F2688       F  0.50616566  0.32054626  0.71733574    -0.13300
C2689       C  0.52700372  0.19411197  0.74115574     0.24700
C2690       C  0.54151838  0.21980095  0.74759866    -0.23400
C2691       C  0.55945959  0.22790936  0.77143266     0.19600
C2692       C  0.56353067  0.21088233  0.78774830     0.24700
C2693       C  0.54992795  0.18527792  0.78038302    -0.23300
C2694       C  0.53132594  0.17699907  0.75722280     0.19600
F2695       F  0.51769533  0.15243101  0.74965638    -0.13300
F2696       F  0.00977637  0.18575382  0.71802451    -0.15600
F2697       F  0.58198738  0.21979192  0.80943478    -0.15600
F2698       F  0.57369886  0.25258007  0.77832203    -0.13300
C2699       C  0.69815008  0.01149347  0.59321871     0.24700
C2700       C  0.71670039  0.02029780  0.61643967    -0.23400
C2701       C  0.72890869  0.04571054  0.62473707     0.19600
C2702       C  0.72363302  0.06214784  0.60910495     0.24700
C2703       C  0.70599370  0.05360512  0.58491934    -0.23300
C2704       C  0.69272789  0.02801470  0.57770989     0.19600
F2705       F  0.67583059  0.01930642  0.55416551    -0.13300
F2706       F  0.68565309  0.98702773  0.58504493    -0.15600
F2707       F  0.73653497  0.08672447  0.61683759    -0.15600
F2708       F  0.74717948  0.05509962  0.64667588    -0.13300
C2709       C  0.84172274  0.02659956  0.58133254     0.24700
C2710       C  0.85449607  0.05210702  0.58864201    -0.23400
C2711       C  0.84723254  0.06021178  0.61477238     0.19600
C2712       C  0.82595415  0.04354861  0.63155291     0.24700
C2713       C  0.81128320  0.01843825  0.62214704    -0.23300
C2714       C  0.82013527  0.00985303  0.59784481     0.19600
F2715       F  0.80741408  0.48549455  0.58923908    -0.13300
F2716       F  0.84874409  0.01829856  0.55646351    -0.15600
F2717       F  0.81869820  0.05262562  0.65535868    -0.15600
F2718       F  0.85993835  0.08470528  0.62289962    -0.13300
C2719       C  0.65268148  0.44487203  0.79145481     0.24700
C2720       C  0.63855650  0.45556000  0.78162828    -0.23400
C2721       C  0.64751073  0.47270891  0.75669733     0.19600
C2722       C  0.66950137  0.47803678  0.74098553     0.24700
C2723       C  0.68249690  0.46592342  0.74965419    -0.23300
C2724       C  0.67430654  0.44993536  0.77556658     0.19600
F2725       F  0.68673705  0.43827731  0.78470399    -0.13300
F2726       F  0.64463800  0.42803225  0.81511316    -0.15600
F2727       F  0.67705410  0.49359539  0.71601967    -0.15600
F2728       F  0.63467814  0.48381580  0.74707181    -0.13300
C2729       C  0.79260472  0.44749356  0.79651831     0.24700
C2730       C  0.81724940  0.45712713  0.78543254    -0.23400
C2731       C  0.82547323  0.47385289  0.76001279     0.19600
C2732       C  0.80877392  0.47891105  0.74440418     0.24700
C2733       C  0.78363540  0.46716204  0.75373328    -0.23300
C2734       C  0.77592374  0.45225227  0.78053817     0.19600
F2735       F  0.75179310  0.44124832  0.79034947    -0.13300
F2736       F  0.78396400  0.43207394  0.82159967    -0.15600
F2737       F  0.81673913  0.99377030  0.71876622    -0.15600
F2738       F  0.84944593  0.98472621  0.74955391    -0.13300
C2739       C  0.63376404  0.39512850  0.65367494     0.24700
C2740       C  0.65289956  0.39885838  0.63314615    -0.23400
C2741       C  0.64784357  0.38128620  0.60973478     0.19600
C2742       C  0.62485460  0.35873964  0.60940508     0.24700
C2743       C  0.60693549  0.35374701  0.63252667    -0.23300
C2744       C  0.61093170  0.37265820  0.65344440     0.19600
F2745       F  0.59376707  0.36828471  0.67580512    -0.13300
F2746       F  0.63821792  0.41215620  0.67612106    -0.16500
F2747       F  0.62160708  0.34051770  0.58943741    -0.15600
F2748       F  0.66628179  0.38436914  0.59007797    -0.13300
C2749       C  0.82229056  0.28404695  0.62597386     0.24700
C2750       C  0.80595917  0.29133859  0.61338648    -0.23400
C2751       C  0.81270328  0.30505849  0.58529146     0.19600
C2752       C  0.83423357  0.30970983  0.56922607     0.24700
C2753       C  0.84918875  0.30059826  0.58082059    -0.23300
C2754       C  0.84352577  0.28846794  0.60966395     0.19600
F2755       F  0.85798916  0.27977289  0.62134930    -0.13300
F2756       F  0.81701289  0.27115059  0.65311343    -0.15600
F2757       F  0.83925876  0.32120279  0.54108360    -0.15600
F2758       F  0.79791869  0.31295396  0.57248801    -0.13300
C2759       C  0.68918411  0.16517679  0.57163436     0.24700
C2760       C  0.69990507  0.15125039  0.58179666    -0.23400
C2761       C  0.71386108  0.15806453  0.60935917     0.19600
C2762       C  0.71845759  0.17934689  0.62555732     0.24700
C2763       C  0.70957210  0.19470925  0.61417302    -0.23300
C2764       C  0.69398004  0.18677370  0.58764993     0.19600
F2765       F  0.68415543  0.20037149  0.57646424    -0.13300
F2766       F  0.67581918  0.15907623  0.54483644    -0.15600
F2767       F  0.73310376  0.18568072  0.65127416    -0.15600
F2768       F  0.72425105  0.14474277  0.61972586    -0.13300
C2769       C  0.78992426  0.34641950  0.79283035     0.24700
C2770       C  0.81539071  0.36052175  0.78449853    -0.23400
C2771       C  0.82415959  0.35183960  0.76025927     0.19600
C2772       C  0.80748842  0.33055391  0.74330112     0.24700
C2773       C  0.78174262  0.31779578  0.75004717    -0.23300
C2774       C  0.77329412  0.32537486  0.77568286     0.19600
F2775       F  0.74861481  0.31294301  0.78336301    -0.13300
F2776       F  0.78066072  0.35398764  0.81610636    -0.15600
F2777       F  0.81624865  0.32360481  0.71883416    -0.15600
F2778       F  0.84876381  0.36444197  0.75227747    -0.13300
C2779       C  0.65459110  0.20794901  0.79223101     0.24700
C2780       C  0.64157581  0.18242137  0.78439401    -0.23400
C2781       C  0.65099230  0.17417279  0.76041745     0.19600
C2782       C  0.67185847  0.19141831  0.74312602     0.24700
C2783       C  0.68329825  0.21705461  0.74940064    -0.23300
C2784       C  0.67513118  0.22504482  0.77478628     0.19600
F2785       F  0.68625846  0.24973236  0.78165686    -0.13300
F2786       F  0.64623193  0.21684523  0.81504374    -0.15600
F2787       F  0.67950653  0.18329975  0.71868984    -0.15600
F2788       F  0.63934414  0.14961529  0.75277303    -0.13300
C2789       C  0.73695116  0.35849927  0.61100464     0.24700
C2790       C  0.74698699  0.35160292  0.63575393    -0.23400
C2791       C  0.76035208  0.36905455  0.65920023     0.19600
C2792       C  0.76058209  0.39153432  0.66032078     0.24700
C2793       C  0.74763254  0.39701884  0.63785692    -0.23300
C2794       C  0.73725144  0.38118184  0.61206454     0.19600
F2795       F  0.72470647  0.38610266  0.58998727    -0.13300
F2796       F  0.72417563  0.34205436  0.58793332    -0.15600
F2797       F  0.77154190  0.40694182  0.68490454    -0.15600
F2798       F  0.77108811  0.36320970  0.68274392    -0.13300
C2799       C  0.63015288  0.24039415  0.65167236     0.24700
C2800       C  0.64966173  0.25523848  0.63098923    -0.23400
C2801       C  0.64555761  0.26812598  0.60698250     0.19600
C2802       C  0.62350397  0.26906621  0.60655164     0.24700
C2803       C  0.60557924  0.25701564  0.63002504    -0.23300
C2804       C  0.60816931  0.24122001  0.65111702     0.19600
F2805       F  0.59053301  0.22873203  0.67330518    -0.13300
F2806       F  0.63346834  0.22717683  0.67443454    -0.15600
F2807       F  0.62124569  0.28436842  0.58593711    -0.15600
F2808       F  0.66419234  0.28255218  0.58671930    -0.13300
Fe2809     Fe  0.71415255  0.78425912  0.19280500     1.65800
Fe2810     Fe  0.74680711  0.75449082  0.18401741     1.73200
Fe2811     Fe  0.72757662  0.77344699  0.11948718     1.54400
O2812       O  0.69012419  0.76262779  0.11914500    -0.80500
O2813       O  0.77677923  0.77214744  0.15427746    -0.78800
O2814       O  0.68197778  0.76947460  0.16714469    -0.83000
O2815       O  0.73005683  0.81727871  0.16911199    -0.77900
O2816       O  0.71675335  0.73623066  0.11281080    -0.79700
O2817       O  0.76730632  0.78344476  0.21512417    -0.82400
C2818       C  0.73820538  0.82511165  0.14202742     0.98300
C2819       C  0.67534854  0.76236460  0.13950975     1.05800
O2820       O  0.72950417  0.77068836  0.16535534    -1.11400
O2821       O  0.71881972  0.73407335  0.21626636    -0.73800
O2822       O  0.69676455  0.75304645  0.21983300    -0.77300
O2823       O  0.73819511  0.81107689  0.12069769    -0.78000
C2824       C  0.70082785  0.73577180  0.22725896     0.97300
O2825       O  0.74408785  0.80080154  0.22240267    -0.76000
O2826       O  0.72879132  0.72412502  0.15486852    -0.81200
C2827       C  0.78113478  0.78260399  0.12787825     0.99900
C2828       C  0.71856812  0.71974919  0.12824506     1.05800
O2829       O  0.76470630  0.78471168  0.11292775    -0.76800
C2830       C  0.76328598  0.79933756  0.22812024     1.04100
Fe2831     Fe  0.71682316  0.93223643  0.19605505     1.65800
Fe2832     Fe  0.74913486  0.49543792  0.18854573     1.73200
Fe2833     Fe  0.73193741  0.95827464  0.12337758     1.54400
O2834       O  0.74086226  0.93033193  0.12438392    -0.80500
O2835       O  0.73308784  0.50867268  0.15832287    -0.78800
O2836       O  0.73256834  0.91518238  0.17255292    -0.83000
O2837       O  0.68515883  0.91533106  0.16947160    -0.77900
O2838       O  0.76973081  0.98395517  0.11931851    -0.79700
O2839       O  0.71946675  0.98677547  0.21839389    -0.82400
C2840       C  0.67886957  0.91681664  0.14193349     0.98300
C2841       C  0.74029763  0.91562211  0.14528026     1.05800
O2842       O  0.73266274  0.96205287  0.16924490    -1.11400
O2843       O  0.76809972  0.48678995  0.22099700    -0.73800
O2844       O  0.74644568  0.94549300  0.22594599    -0.77300
O2845       O  0.69403830  0.93197567  0.12193389    -0.78000
C2846       C  0.76486888  0.96671466  0.23270886     0.97300
O2847       O  0.69911073  0.94537278  0.22300953    -0.76000
O2848       O  0.78041556  0.50846286  0.16084118    -0.81200
C2849       C  0.72434523  0.50357944  0.13104472     0.99900
C2850       C  0.78576484  0.50237812  0.13517865     1.05800
O2851       O  0.72277120  0.98556201  0.11568525    -0.76800
C2852       C  0.70174009  0.96639200  0.22929378     1.04100
Fe2853     Fe  0.57305274  0.78794919  0.19184702     1.65800
Fe2854     Fe  0.00970277  0.75367061  0.18539676     1.73200
Fe2855     Fe  0.54631189  0.77547921  0.11954593     1.54400
O2856       O  0.57377396  0.81305795  0.11969866    -0.80500
O2857       O  0.99866128  0.72356736  0.15699596    -0.78800
O2858       O  0.58900861  0.82083452  0.16778688    -0.83000
O2859       O  0.59040804  0.77417611  0.16524903    -0.77900
O2860       O  0.51968129  0.78595170  0.11543322    -0.79700
O2861       O  0.52003864  0.73515791  0.21710452    -0.82400
C2862       C  0.58846449  0.76574777  0.13806191     0.98300
C2863       C  0.58837582  0.82775168  0.14034208     1.05800
O2864       O  0.54300189  0.77243507  0.16551056    -1.11400
O2865       O  0.51730313  0.78239924  0.21583407    -0.73800
O2866       O  0.55879417  0.80315995  0.22150582    -0.77300
O2867       O  0.57309721  0.76510419  0.11812067    -0.78000
C2868       C  0.53736577  0.79985218  0.22764907     0.97300
O2869       O  0.56152396  0.75726472  0.21944970    -0.76000
O2870       O  0.99422892  0.76847082  0.15592558    -0.81200
C2871       C  0.00324439  0.72057148  0.12924196     0.99900
C2872       C  0.99992092  0.78047395  0.13044365     1.05800
O2873       O  0.51967292  0.73828945  0.11272138    -0.76800
C2874       C  0.54077589  0.73852267  0.22709120     1.04100
Fe2875     Fe  0.73704231  0.62061196  0.02768371     1.65800
Fe2876     Fe  0.67365394  0.58526872  0.02062825     1.73200
Fe2877     Fe  0.71109413  0.60414344  0.45524861     1.54400
O2878       O  0.73826126  0.64183385  0.45312505    -0.80500
O2879       O  0.66131090  0.55413980  0.49302113    -0.78800
O2880       O  0.75246875  0.65235510  0.00136789    -0.83000
O2881       O  0.75535191  0.60641943  0.00392031    -0.77900
O2882       O  0.68421524  0.61411219  0.44847266    -0.79700
O2883       O  0.68398415  0.56730631  0.05295914    -0.82400
C2884       C  0.75388967  0.59644655  0.47791815     0.98300
C2885       C  0.75204136  0.65782486  0.47320547     1.05800
O2886       O  0.70719624  0.60329960  0.00107931    -1.11400
O2887       O  0.68108411  0.61458279  0.05042471    -0.73800
O2888       O  0.72255264  0.63682032  0.05498392    -0.77300
O2889       O  0.73829621  0.59401719  0.45706004    -0.78000
C2890       C  0.70099846  0.63294349  0.06126633     0.97300
O2891       O  0.72538283  0.59107685  0.05732763    -0.76000
O2892       O  0.65934402  0.60026793  0.49011671    -0.81200
C2893       C  0.66652515  0.55004870  0.46605174     0.99900
C2894       C  0.66507387  0.61060470  0.46356095     1.05800
O2895       O  0.68451332  0.56678145  0.45017036    -0.76800
C2896       C  0.70478093  0.57177267  0.06421432     1.04100
Fe2897     Fe  0.88468593  0.61889561  0.03099696     1.65800
Fe2898     Fe  0.91549242  0.58751991  0.01999200     1.73200
Fe2899     Fe  0.89469024  0.60631650  0.45688589     1.54400
O2900       O  0.85668337  0.59383062  0.45964233    -0.80500
O2901       O  0.94366508  0.60392507  0.48812339    -0.78800
O2902       O  0.85148228  0.60412525  0.00740139    -0.83000
O2903       O  0.89972795  0.65162803  0.00657483    -0.77900
O2904       O  0.88544554  0.56954026  0.44966670    -0.79700
O2905       O  0.93799114  0.61683094  0.04930093    -0.82400
C2906       C  0.90483588  0.65818272  0.47847059     0.98300
C2907       C  0.84317813  0.59520793  0.48072652     1.05800
O2908       O  0.89823845  0.60418151  0.00253701    -1.11400
O2909       O  0.88902664  0.56827877  0.05416099    -0.73800
O2910       O  0.86807197  0.58825347  0.05924872    -0.77300
O2911       O  0.90323400  0.64329925  0.45734132    -0.78000
C2912       C  0.87182453  0.57069983  0.06628618     0.97300
O2913       O  0.91604188  0.63538725  0.05802958    -0.76000
O2914       O  0.89581357  0.55660454  0.49239419    -0.81200
C2915       C  0.94824184  0.61545087  0.46247604     0.99900
C2916       C  0.88665407  0.55278257  0.46526080     1.05800
O2917       O  0.93237416  0.61928117  0.44869007    -0.76800
C2918       C  0.93508715  0.63337333  0.06232371     1.04100
Fe2919     Fe  0.87921263  0.76307096  0.02667058     1.65800
Fe2920     Fe  0.91435473  0.82618181  0.01952260     1.73200
Fe2921     Fe  0.89442297  0.78925284  0.45427166     1.54400
O2922       O  0.90568836  0.76310168  0.45486950    -0.80500
O2923       O  0.90067503  0.84135874  0.48810876    -0.78800
O2924       O  0.89157844  0.74411048  0.00058803    -0.83000
O2925       O  0.84642864  0.74862293  0.00225486    -0.77900
O2926       O  0.93161940  0.81669579  0.44844688    -0.79700
O2927       O  0.88458322  0.81915331  0.04772107    -0.82400
C2928       C  0.84095935  0.74799747  0.47385130     0.98300
C2929       C  0.90214442  0.74644741  0.47467563     1.05800
O2930       O  0.89605388  0.79286431  0.00007526    -1.11400
O2931       O  0.93121447  0.81558764  0.05332239    -0.73800
O2932       O  0.91002105  0.77405758  0.05407916    -0.77300
O2933       O  0.85700640  0.76109158  0.45329935    -0.78000
C2934       C  0.92815150  0.79485743  0.06283756     0.97300
O2935       O  0.86480666  0.77813919  0.05634135    -0.76000
O2936       O  0.94569069  0.83715106  0.49305566    -0.81200
C2937       C  0.88845714  0.83499297  0.46283746     0.99900
C2938       C  0.94909427  0.83302300  0.46527312     1.05800
O2939       O  0.88297706  0.81497239  0.44869013    -0.76800
C2940       C  0.86752713  0.79946735  0.06063837     1.04100
Fe2941     Fe  0.90442572  0.95403443  0.35944134     1.65800
Fe2942     Fe  0.84090328  0.92042085  0.35402494     1.73200
Fe2943     Fe  0.87731481  0.93913811  0.28781116     1.54400
O2944       O  0.90604705  0.97626854  0.28628464    -0.80500
O2945       O  0.82765469  0.88914069  0.32637063    -0.78800
O2946       O  0.91910293  0.98663294  0.33499428    -0.83000
O2947       O  0.92254866  0.94091757  0.33284407    -0.77900
O2948       O  0.85226765  0.95145688  0.28320603    -0.79700
O2949       O  0.85115070  0.90210875  0.38615964    -0.82400
C2950       C  0.91960977  0.93018938  0.30698542     0.98300
C2951       C  0.91936274  0.99220231  0.30669236     1.05800
O2952       O  0.87413742  0.93773497  0.33369958    -1.11400
O2953       O  0.84941764  0.94991592  0.38386447    -0.73800
O2954       O  0.89068126  0.96930512  0.38976672    -0.77300
O2955       O  0.90277944  0.92696350  0.28765799    -0.78000
C2956       C  0.86965485  0.96687817  0.39589239     0.97300
O2957       O  0.89286918  0.92328394  0.38669215    -0.76000
O2958       O  0.82692033  0.93626557  0.32418306    -0.81200
C2959       C  0.83194184  0.88535272  0.29876364     0.99900
C2960       C  0.83333225  0.94807236  0.29857138     1.05800
O2961       O  0.84921126  0.90232317  0.28226407    -0.76800
C2962       C  0.87199449  0.90512766  0.39534771     1.04100
Fe2963     Fe  0.54702054  0.94907725  0.36061606     1.65800
Fe2964     Fe  0.58000782  0.91992384  0.35171046     1.73200
Fe2965     Fe  0.55980249  0.93775137  0.28758832     1.54400
O2966       O  0.52296613  0.93010789  0.28869727    -0.80500
O2967       O  0.61097233  0.94035984  0.32430467    -0.78800
O2968       O  0.51316446  0.92964895  0.33846573    -0.83000
O2969       O  0.55809717  0.97994095  0.33337744    -0.77900
O2970       O  0.54623623  0.89986274  0.28211743    -0.79700
O2971       O  0.59803378  0.94731675  0.38531394    -0.82400
C2972       C  0.56926921  0.98866632  0.30781857     0.98300
C2973       C  0.50727546  0.92635627  0.30999884     1.05800
O2974       O  0.56235911  0.93561207  0.33322850    -1.11400
O2975       O  0.55060219  0.89713827  0.38100550    -0.73800
O2976       O  0.53398225  0.92043494  0.39197498    -0.77300
O2977       O  0.57321892  0.97582540  0.28837620    -0.78000
C2978       C  0.53541177  0.90108103  0.39594125     0.97300
O2979       O  0.57921029  0.96968397  0.38564727    -0.76000
O2980       O  0.56487890  0.89112592  0.32023433    -0.81200
C2981       C  0.61395299  0.94729249  0.29615723     0.99900
C2982       C  0.55183187  0.88513809  0.29561733     1.05800
O2983       O  0.59634195  0.94612133  0.27973732    -0.76800
C2984       C  0.59642364  0.96581872  0.39441739     1.04100
Fe2985     Fe  0.54673002  0.59563312  0.35982659     1.65800
Fe2986     Fe  0.58126229  0.65889757  0.35284575     1.73200
Fe2987     Fe  0.56274095  0.62173119  0.28737528     1.54400
O2988       O  0.57145588  0.59359634  0.28860581    -0.80500
O2989       O  0.56575545  0.67305526  0.32266930    -0.78800
O2990       O  0.56141135  0.57770815  0.33635546    -0.83000
O2991       O  0.51504763  0.57973165  0.33344503    -0.77900
O2992       O  0.60050810  0.64726007  0.28272732    -0.79700
O2993       O  0.55224039  0.65122660  0.38328593    -0.82400
C2994       C  0.50911259  0.58109222  0.30572479     0.98300
C2995       C  0.56997389  0.57846099  0.30952551     1.05800
O2996       O  0.56360184  0.62548275  0.33323983    -1.11400
O2997       O  0.59979728  0.64894354  0.38490044    -0.73800
O2998       O  0.57622339  0.60767950  0.38963692    -0.77300
O2999       O  0.52471527  0.59569378  0.28569166    -0.78000
C3000       C  0.59547001  0.62829731  0.39643553     0.97300
O3001       O  0.53006807  0.60980635  0.38655322    -0.76000
O3002       O  0.61204847  0.67130754  0.32474756    -0.81200
C3003       C  0.55663685  0.66800405  0.29546699     0.99900
C3004       C  0.61674694  0.66563298  0.29844236     1.05800
O3005       O  0.55406146  0.64942363  0.28016588    -0.76800
C3006       C  0.53386421  0.63111916  0.39368087     1.04100
C3007       C  0.58960276  0.55436618  0.32655738     0.24700
C3008       C  0.57746125  0.55997399  0.30307332    -0.23400
C3009       C  0.56799287  0.54430892  0.27701849     0.19600
C3010       C  0.56794195  0.52174023  0.27640122     0.24700
C3011       C  0.57746124  0.51491216  0.30176366    -0.23300
C3012       C  0.58965960  0.53205319  0.32583734     0.19600
F3013       F  0.59935307  0.52594687  0.35033430    -0.13300
F3014       F  0.59937016  0.56941752  0.35169965    -0.15600
F3015       F  0.55556715  0.00514761  0.25321557    -0.15600
F3016       F  0.55607981  0.54928581  0.25414240    -0.13300
C3017       C  0.94127144  0.53743747  0.31809277     0.24700
C3018       C  0.93731789  0.51818159  0.29776344    -0.23400
C3019       C  0.95478934  0.52314353  0.27405065     0.19600
C3020       C  0.97766570  0.54582271  0.27375511     0.24700
C3021       C  0.98298747  0.56354264  0.29707325    -0.23300
C3022       C  0.96399202  0.56000270  0.31773763     0.19600
F3023       F  0.96857868  0.57723989  0.33994834    -0.13300
F3024       F  0.92426841  0.53333640  0.34057225    -0.15600
F3025       F  0.49583693  0.54894064  0.25360697    -0.15600
F3026       F  0.95143955  0.00478092  0.25418189    -0.13300
C3027       C  0.93974348  0.90611795  0.32136849     0.24700
C3028       C  0.93724457  0.92177109  0.29995173    -0.23400
C3029       C  0.95561742  0.93408935  0.27704104     0.19600
C3030       C  0.97769211  0.93315123  0.27791238     0.24700
C3031       C  0.98155449  0.92000679  0.30188215    -0.23300
C3032       C  0.96172310  0.90518323  0.32231466     0.19600
F3033       F  0.96448490  0.89147945  0.34490629    -0.13300
F3034       F  0.92182617  0.89357441  0.34323501    -0.15600
F3035       F  0.49644402  0.94760841  0.25781258    -0.15600
F3036       F  0.95360202  0.94947521  0.25632195    -0.13300
C3037       C  0.86117032  0.84387826  0.42798391     0.24700
C3038       C  0.88149442  0.85238021  0.44873076    -0.23400
C3039       C  0.89642595  0.87819842  0.45442136     0.19600
C3040       C  0.89215928  0.89514435  0.43836482     0.24700
C3041       C  0.87278029  0.88678309  0.41639192    -0.23300
C3042       C  0.85678129  0.86097449  0.41202820     0.19600
F3043       F  0.83802559  0.85237228  0.39078576    -0.13300
F3044       F  0.84591100  0.81908695  0.42257500    -0.15600
F3045       F  0.90771505  0.91996273  0.44345530    -0.15600
F3046       F  0.91628786  0.88734008  0.47407294    -0.13300
C3047       C  0.00393993  0.85692452  0.40988556     0.24700
C3048       C  0.51749244  0.88232521  0.41791494    -0.23400
C3049       C  0.51053918  0.89040273  0.44442467     0.19600
C3050       C  0.98910763  0.87390209  0.46101984     0.24700
C3051       C  0.97413248  0.84893954  0.45136901    -0.23300
C3052       C  0.98227792  0.84034947  0.42640210     0.19600
F3053       F  0.96871065  0.81617153  0.41715861    -0.13300
F3054       F  0.01036385  0.84859557  0.38451279    -0.15600
F3055       F  0.48196110  0.88299576  0.48495640    -0.15600
F3056       F  0.52370432  0.91475449  0.45314585    -0.13300
C3057       C  0.98428633  0.60917499  0.45461876     0.24700
C3058       C  0.97261174  0.62297903  0.44768408    -0.23400
C3059       C  0.98375356  0.64241049  0.42553854     0.19600
C3060       C  0.00523100  0.64674566  0.40928612     0.24700
C3061       C  0.51554049  0.63153757  0.41490780    -0.23300
C3062       C  0.50539339  0.61342261  0.43847693     0.19600
F3063       F  0.51526719  0.59881163  0.44491137    -0.13300
F3064       F  0.97433333  0.59016530  0.47561051    -0.15600
F3065       F  0.01487210  0.66457488  0.38679033    -0.15600
F3066       F  0.97360068  0.65676023  0.41914593    -0.13300
C3067       C  0.85619650  0.99741275  0.41009122     0.24700
C3068       C  0.86961891  0.98541335  0.41720936    -0.23400
C3069       C  0.88623431  0.99395221  0.44248950     0.19600
C3070       C  0.89040440  0.51485474  0.45922272     0.24700
C3071       C  0.87857083  0.52821373  0.45068341    -0.23300
C3072       C  0.86077981  0.51883349  0.42649260     0.19600
F3073       F  0.84839977  0.53072096  0.41821390    -0.13300
F3074       F  0.83997652  0.98957045  0.38582989    -0.15600
F3075       F  0.90771206  0.52310292  0.48231273    -0.15600
F3076       F  0.89907130  0.98243475  0.45038113    -0.13300
C3077       C  0.92506724  0.70304873  0.49229000     0.24700
C3078       C  0.91136195  0.68394752  0.47069923    -0.23400
C3079       C  0.89962932  0.68859332  0.44568082     0.19600
C3080       C  0.89905318  0.71083703  0.44457971     0.24700
C3081       C  0.91025078  0.72848328  0.46840776    -0.23300
C3082       C  0.92449607  0.72511769  0.49113113     0.19600
F3083       F  0.93590293  0.74226162  0.51398876    -0.13300
F3084       F  0.93719333  0.69942314  0.51618394    -0.15600
F3085       F  0.88512056  0.71375359  0.42247228    -0.15600
F3086       F  0.88621077  0.67048690  0.42453146    -0.13300
C3087       C  0.62214026  0.60390918  0.45615325     0.24700
C3088       C  0.64791894  0.61778009  0.44924585    -0.23400
C3089       C  0.65660108  0.63740680  0.42745555     0.19600
C3090       C  0.63968490  0.64224745  0.41181601     0.24700
C3091       C  0.61380722  0.62735756  0.41748201    -0.23300
C3092       C  0.60532857  0.60866010  0.44047227     0.19600
F3093       F  0.58050828  0.59422962  0.44696814    -0.13300
F3094       F  0.61285542  0.58457532  0.47667261    -0.15600
F3095       F  0.64846538  0.66032071  0.38962276    -0.15600
F3096       F  0.68138893  0.65154729  0.42076089    -0.13300
C3097       C  0.65793526  0.51746951  0.42565892     0.24700
C3098       C  0.64984102  0.52537377  0.45147434    -0.23400
C3099       C  0.62452683  0.51100942  0.46062494     0.19600
C3100       C  0.60752030  0.99070219  0.44279884     0.24700
C3101       C  0.61531279  0.98401744  0.41589198    -0.23300
C3102       C  0.64074224  0.49684428  0.40814427     0.19600
F3103       F  0.64868781  0.49064241  0.38220397    -0.13300
F3104       F  0.68228997  0.53027619  0.41658683    -0.15600
F3105       F  0.58300081  0.97804998  0.45120917    -0.15600
F3106       F  0.61598090  0.01756358  0.48551770    -0.13300
C3107       C  0.77274096  0.70302232  0.98395813     0.24700
C3108       C  0.76971144  0.68384860  0.46413895    -0.23400
C3109       C  0.78794100  0.68905632  0.44139997     0.19600
C3110       C  0.81060722  0.71196263  0.44173519     0.24700
C3111       C  0.81505603  0.72964368  0.46485016    -0.23300
C3112       C  0.79532127  0.72576860  0.98439923     0.19600
F3113       F  0.79886374  0.74298426  0.00615570    -0.13300
F3114       F  0.75487087  0.69866517  0.00529184    -0.15600
F3115       F  0.82934889  0.71533210  0.42244137    -0.15600
F3116       F  0.78533183  0.67084397  0.42184578    -0.13300
C3117       C  0.78855980  0.59755727  0.44730489     0.24700
C3118       C  0.77197138  0.58820307  0.47257941    -0.23400
C3119       C  0.77654192  0.57582013  0.99677513     0.19600
C3120       C  0.79889736  0.57564644  0.99771783     0.24700
C3121       C  0.81692631  0.58764467  0.47428409    -0.23300
C3122       C  0.81097553  0.59722434  0.44811964     0.19600
F3123       F  0.82815664  0.60906517  0.42530720    -0.13300
F3124       F  0.78460984  0.60973491  0.42379398    -0.15600
F3125       F  0.80390527  0.56568932  0.02289709    -0.15600
F3126       F  0.76034315  0.56590464  0.02099723    -0.13300
C3127       C  0.93869606  0.77495431  0.10604901     0.24700
C3128       C  0.94666050  0.79435182  0.08410597    -0.23400
C3129       C  0.97249483  0.81109579  0.08018395     0.19600
C3130       C  0.99000115  0.80732723  0.09622305     0.24700
C3131       C  0.98196294  0.78699377  0.11685467    -0.23300
C3132       C  0.95609566  0.77139546  0.12236462     0.19600
F3133       F  0.94742364  0.75155896  0.14201733    -0.13300
F3134       F  0.91389632  0.75881418  0.11099126    -0.15600
F3135       F  0.51478401  0.82320707  0.09097264    -0.15600
F3136       F  0.98082641  0.83008403  0.05927619    -0.13300
C3137       C  0.97947920  0.66623293  0.07331630     0.24700
C3138       C  0.95444470  0.65176007  0.08305361    -0.23400
C3139       C  0.94683068  0.65806083  0.11040550     0.19600
C3140       C  0.96321462  0.67972829  0.12634872     0.24700
C3141       C  0.98769325  0.69562715  0.11521272    -0.23300
C3142       C  0.99603050  0.68817858  0.08923137     0.19600
F3143       F  0.51981109  0.70258565  0.07852518    -0.13300
F3144       F  0.98731902  0.66028132  0.04708144    -0.15600
F3145       F  0.95430378  0.68607379  0.15124147    -0.15600
F3146       F  0.92287232  0.64391986  0.12066270    -0.13300
C3147       C  0.55275065  0.82673039  0.27426405     0.24700
C3148       C  0.53651149  0.81795262  0.24871932    -0.23400
C3149       C  0.52259055  0.82930325  0.24109592     0.19600
C3150       C  0.52650164  0.85051347  0.25725453     0.24700
C3151       C  0.54424051  0.86049249  0.28151576    -0.23300
C3152       C  0.55647031  0.84758417  0.29062238     0.19600
F3153       F  0.57336130  0.85592327  0.31418123    -0.13300
F3154       F  0.06594151  0.81567155  0.28262783    -0.15600
F3155       F  0.51359833  0.86172554  0.24836178    -0.15600
F3156       F  0.50665865  0.82106152  0.21653273    -0.13300
C3157       C  0.52696545  0.69416036  0.24134240     0.24700
C3158       C  0.54152221  0.71985803  0.24772309    -0.23400
C3159       C  0.55950019  0.72797167  0.27151815     0.19600
C3160       C  0.56357348  0.71094253  0.28783354     0.24700
C3161       C  0.54993961  0.68533044  0.28050545    -0.23300
C3162       C  0.53128885  0.67704698  0.25740900     0.19600
F3163       F  0.51760585  0.65246933  0.24990616    -0.13300
F3164       F  0.00971790  0.68577501  0.21813856    -0.15600
F3165       F  0.58205794  0.71985486  0.30948350    -0.15600
F3166       F  0.57377323  0.75264698  0.27836901    -0.13300
C3167       C  0.69807784  0.51137347  0.09322025     0.24700
C3168       C  0.71662684  0.52017123  0.11644125    -0.23400
C3169       C  0.72882076  0.54557562  0.12477146     0.19600
C3170       C  0.72354016  0.56201713  0.10916293     0.24700
C3171       C  0.70590425  0.55348525  0.08497656    -0.23300
C3172       C  0.69264477  0.52789914  0.07774005     0.19600
F3173       F  0.67574798  0.51920356  0.05419488    -0.13300
F3174       F  0.68559391  0.48691262  0.08502344    -0.15600
F3175       F  0.73643953  0.58659031  0.11691063    -0.15600
F3176       F  0.74708634  0.55495414  0.14671726    -0.13300
C3177       C  0.84180791  0.52658940  0.08154794     0.24700
C3178       C  0.85447870  0.55211720  0.08874098    -0.23400
C3179       C  0.84712984  0.56024057  0.11477592     0.19600
C3180       C  0.82585189  0.54356842  0.13154756     0.24700
C3181       C  0.81127417  0.51842681  0.12223544    -0.23300
C3182       C  0.82022154  0.50983050  0.09805466     0.19600
F3183       F  0.80724168  0.98552813  0.08899820    -0.13300
F3184       F  0.84892684  0.51826821  0.05679167    -0.15600
F3185       F  0.81849589  0.55265851  0.15523380    -0.15600
F3186       F  0.85974776  0.58475525  0.12280768    -0.13300
C3187       C  0.65285491  0.94513638  0.29157392     0.24700
C3188       C  0.63865553  0.95572332  0.28166630    -0.23400
C3189       C  0.64758632  0.97285825  0.25671730     0.19600
C3190       C  0.66960777  0.97824175  0.24104397     0.24700
C3191       C  0.68266404  0.96620627  0.24977662    -0.23300
C3192       C  0.67451587  0.95026255  0.27572973     0.19600
F3193       F  0.68701125  0.93868579  0.28493041    -0.13300
F3194       F  0.64485433  0.92832585  0.31526283    -0.15600
F3195       F  0.67712504  0.99376224  0.21604208    -0.15600
F3196       F  0.63469474  0.98388518  0.24702133    -0.13300
C3197       C  0.79263987  0.94748234  0.29647900     0.24700
C3198       C  0.81731480  0.95719709  0.28546509    -0.23400
C3199       C  0.82556946  0.97401815  0.26014220     0.19600
C3200       C  0.80887432  0.97909420  0.24454424     0.24700
C3201       C  0.78371142  0.96727445  0.25379541    -0.23300
C3202       C  0.77596983  0.95226961  0.28052148     0.19600
F3203       F  0.75181802  0.94119546  0.29026907    -0.13300
F3204       F  0.78396042  0.93195298  0.32145706    -0.15600
F3205       F  0.81661086  0.49348264  0.21850182    -0.15600
F3206       F  0.84932391  0.48444544  0.24925974    -0.13300
C3207       C  0.63371783  0.89508811  0.15397887     0.24700
C3208       C  0.65285037  0.89893144  0.13337304    -0.23400
C3209       C  0.64778511  0.88147116  0.10980449     0.19600
C3210       C  0.62480557  0.85890989  0.10938999     0.24700
C3211       C  0.60689794  0.85379463  0.13257210    -0.23300
C3212       C  0.61089126  0.87261261  0.15364774     0.19600
F3213       F  0.59373282  0.86812838  0.17606339    -0.13300
F3214       F  0.63816295  0.91200616  0.17657152    -0.16500
F3215       F  0.62155851  0.84078728  0.08925337    -0.15600
F3216       F  0.66620761  0.88466887  0.09004404    -0.13300
C3217       C  0.82250689  0.78454654  0.12611721     0.24700
C3218       C  0.80595100  0.79145992  0.11329300    -0.23400
C3219       C  0.81245731  0.80478513  0.08490229     0.19600
C3220       C  0.83395638  0.80938323  0.06881352     0.24700
C3221       C  0.84913056  0.80062452  0.08067679    -0.23300
C3222       C  0.84370822  0.78889860  0.10976945     0.19600
F3223       F  0.85838455  0.78053968  0.12169122    -0.13300
F3224       F  0.81750826  0.77211083  0.15357948    -0.15600
F3225       F  0.83874140  0.82045560  0.04041443    -0.15600
F3226       F  0.79745987  0.81230833  0.07182251    -0.13300
C3227       C  0.68931096  0.66524905  0.07153141     0.24700
C3228       C  0.69995233  0.65126554  0.08176116    -0.23400
C3229       C  0.71387639  0.65806562  0.10935042     0.19600
C3230       C  0.71849553  0.67936689  0.12552733     0.24700
C3231       C  0.70966302  0.69476288  0.11410434    -0.23300
C3232       C  0.69412897  0.68686343  0.08752719     0.19600
F3233       F  0.68437313  0.70050536  0.07628142    -0.13300
F3234       F  0.67599533  0.65917813  0.04469558    -0.15600
F3235       F  0.73310634  0.68567928  0.15127484    -0.15600
F3236       F  0.72420177  0.64470054  0.11977664    -0.13300
C3237       C  0.78989749  0.84652792  0.29274316     0.24700
C3238       C  0.81538173  0.86055488  0.28448564    -0.23400
C3239       C  0.82415880  0.85179190  0.26035140     0.19600
C3240       C  0.80748391  0.83048544  0.24342479     0.24700
C3241       C  0.78172274  0.81779466  0.25008616    -0.23300
C3242       C  0.77326275  0.82546601  0.27562674     0.19600
F3243       F  0.74857155  0.81310945  0.28324442    -0.13300
F3244       F  0.78062866  0.85418923  0.31591009    -0.15600
F3245       F  0.81626596  0.82344500  0.21907115    -0.15600
F3246       F  0.84877970  0.86432931  0.25245023    -0.13300
C3247       C  0.65464630  0.70795014  0.29232021     0.24700
C3248       C  0.64159694  0.68242537  0.28446809    -0.23400
C3249       C  0.65098212  0.67416763  0.26046319     0.19600
C3250       C  0.67184989  0.69140159  0.24316257     0.24700
C3251       C  0.68332135  0.71703663  0.24945102    -0.23300
C3252       C  0.67518562  0.72503614  0.27486029     0.19600
F3253       F  0.68633905  0.74972553  0.28173269    -0.13300
F3254       F  0.64631873  0.71685471  0.31516008    -0.15600
F3255       F  0.67946588  0.68327713  0.21870085    -0.15600
F3256       F  0.63929823  0.64961302  0.25279670    -0.13300
C3257       C  0.73697196  0.85857769  0.11115163     0.24700
C3258       C  0.74691263  0.85163217  0.13596222    -0.23400
C3259       C  0.76020844  0.86905301  0.15946884     0.19600
C3260       C  0.76044604  0.89153636  0.16057867     0.24700
C3261       C  0.74758080  0.89706495  0.13804156    -0.23300
C3262       C  0.73728496  0.88126876  0.11219944     0.19600
F3263       F  0.72484021  0.88624291  0.09003781    -0.13300
F3264       F  0.72428512  0.84217971  0.08800492    -0.15600
F3265       F  0.77133428  0.90690794  0.18521141    -0.15600
F3266       F  0.77087860  0.86318141  0.18306582    -0.13300
C3267       C  0.63016742  0.74036165  0.15179929     0.24700
C3268       C  0.64963323  0.75513750  0.13103416    -0.23400
C3269       C  0.64548714  0.76795123  0.10697249     0.19600
C3270       C  0.62344414  0.76890886  0.10656689     0.24700
C3271       C  0.60558121  0.75695721  0.13012918    -0.23300
C3272       C  0.60819967  0.74121291  0.15127996     0.19600
F3273       F  0.59061744  0.72881026  0.17355284    -0.13300
F3274       F  0.63352450  0.72720855  0.17461129    -0.15600
F3275       F  0.62114949  0.78414714  0.08588316    -0.15600
F3276       F  0.66408071  0.78230392  0.08662535    -0.13300
Fe3277     Fe  0.71416343  0.78425795  0.69280302     1.65800
Fe3278     Fe  0.74681305  0.75448726  0.68400633     1.73200
Fe3279     Fe  0.72757953  0.77344628  0.61948150     1.54400
O3280       O  0.69012149  0.76260061  0.61914527    -0.80500
O3281       O  0.77677231  0.77212685  0.65424639    -0.78800
O3282       O  0.68199470  0.76949561  0.66713201    -0.83000
O3283       O  0.73008227  0.81728479  0.66912678    -0.77900
O3284       O  0.71678175  0.73623706  0.61279716    -0.79700
O3285       O  0.76732963  0.78344896  0.71509419    -0.82400
C3286       C  0.73820024  0.82510996  0.64203042     0.98300
C3287       C  0.67535578  0.76236248  0.63950567     1.05800
O3288       O  0.72951074  0.77068675  0.66534849    -1.11400
O3289       O  0.71883540  0.73408170  0.71627163    -0.73800
O3290       O  0.69675860  0.75303408  0.71980840    -0.77300
O3291       O  0.73816857  0.81106930  0.62069336    -0.78000
C3292       C  0.70083058  0.73576722  0.72724490     0.97300
O3293       O  0.74409356  0.80078102  0.72241345    -0.76000
O3294       O  0.72878044  0.72411601  0.65487592    -0.81200
C3295       C  0.78113541  0.78260529  0.62786087     0.99900
C3296       C  0.71857720  0.71974859  0.62824193     1.05800
O3297       O  0.76471510  0.78473641  0.61292460    -0.76800
C3298       C  0.76330175  0.79932926  0.72811010     1.04100
Fe3299     Fe  0.71681605  0.93224557  0.69603504     1.65800
Fe3300     Fe  0.74912548  0.49540950  0.68853044     1.73200
Fe3301     Fe  0.73194776  0.95829090  0.62336372     1.54400
O3302       O  0.74086514  0.93034306  0.62436529    -0.80500
O3303       O  0.73306736  0.50864920  0.65833493    -0.78800
O3304       O  0.73254542  0.91517964  0.67252707    -0.83000
O3305       O  0.68515256  0.91535562  0.66945119    -0.77900
O3306       O  0.76974384  0.98396926  0.61931246    -0.79700
O3307       O  0.71947695  0.98679175  0.71838686    -0.82400
C3308       C  0.67887071  0.91683895  0.64190859     0.98300
C3309       C  0.74028246  0.91562244  0.64525825     1.05800
O3310       O  0.73266736  0.96206483  0.66923157    -1.11400
O3311       O  0.76809783  0.48674908  0.72095349    -0.73800
O3312       O  0.74643814  0.94548893  0.72592329    -0.77300
O3313       O  0.69404632  0.93199374  0.62191030    -0.78000
C3314       C  0.76486145  0.96670777  0.73269606     0.97300
O3315       O  0.69911566  0.94538922  0.72299745    -0.76000
O3316       O  0.78039962  0.50844556  0.66080888    -0.81200
C3317       C  0.72434060  0.50357220  0.63104881     0.99900
C3318       C  0.78575464  0.50235776  0.63515234     1.05800
O3319       O  0.72278886  0.98558272  0.61567794    -0.76800
C3320       C  0.70174987  0.96640922  0.72928792     1.04100
Fe3321     Fe  0.57305997  0.78795508  0.69183187     1.65800
Fe3322     Fe  0.00971376  0.75366534  0.68538290     1.73200
Fe3323     Fe  0.54632243  0.77548427  0.61952748     1.54400
O3324       O  0.57377958  0.81306554  0.61967942    -0.80500
O3325       O  0.99867426  0.72355642  0.65698942    -0.78800
O3326       O  0.58902658  0.82083754  0.66776211    -0.83000
O3327       O  0.59040964  0.77417110  0.66524531    -0.77900
O3328       O  0.51968385  0.78594800  0.61540821    -0.79700
O3329       O  0.52004073  0.73515337  0.71707126    -0.82400
C3330       C  0.58847371  0.76575089  0.63805522     0.98300
C3331       C  0.58838932  0.82775666  0.64031948     1.05800
O3332       O  0.54301026  0.77244259  0.66549288    -1.11400
O3333       O  0.51731132  0.78239973  0.71582918    -0.73800
O3334       O  0.55880429  0.80317577  0.72147842    -0.77300
O3335       O  0.57311498  0.76511744  0.61810773    -0.78000
C3336       C  0.53737440  0.79985953  0.72763353     0.97300
O3337       O  0.56152426  0.75727305  0.71944436    -0.76000
O3338       O  0.99423486  0.76845914  0.65590617    -0.81200
C3339       C  0.00324680  0.72056336  0.62922913     0.99900
C3340       C  0.99993098  0.78047187  0.63043044     1.05800
O3341       O  0.51969069  0.73829162  0.61270463    -0.76800
C3342       C  0.54077673  0.73852223  0.72706873     1.04100
Fe3343     Fe  0.73703957  0.62060500  0.52770939     1.65800
Fe3344     Fe  0.67365112  0.58526326  0.52064828     1.73200
Fe3345     Fe  0.71109394  0.60414391  0.95522545     1.54400
O3346       O  0.73826573  0.64183209  0.95309530    -0.80500
O3347       O  0.66131465  0.55414139  0.99300900    -0.78800
O3348       O  0.75247125  0.65234944  0.50139615    -0.83000
O3349       O  0.75534781  0.60641177  0.50394771    -0.77900
O3350       O  0.68421815  0.61411688  0.94844901    -0.79700
O3351       O  0.68397787  0.56729604  0.55297478    -0.82400
C3352       C  0.75388855  0.59644605  0.97789506     0.98300
C3353       C  0.75204210  0.65782631  0.97317458     1.05800
O3354       O  0.70719462  0.60329516  0.50110235    -1.11400
O3355       O  0.68108185  0.61457173  0.55045189    -0.73800
O3356       O  0.72255078  0.63681372  0.55500602    -0.77300
O3357       O  0.73829117  0.59401077  0.95703920    -0.78000
C3358       C  0.70099611  0.63293367  0.56129071     0.97300
O3359       O  0.72537544  0.59106997  0.55735373    -0.76000
O3360       O  0.65934220  0.60026433  0.99008945    -0.81200
C3361       C  0.66652390  0.55005145  0.96603629     0.99900
C3362       C  0.66507252  0.61060178  0.96353389     1.05800
O3363       O  0.68450832  0.56678457  0.95015111    -0.76800
C3364       C  0.70477331  0.57176481  0.56423693     1.04100
Fe3365     Fe  0.88468806  0.61889348  0.53099186     1.65800
Fe3366     Fe  0.91548619  0.58751420  0.51997790     1.73200
Fe3367     Fe  0.89469875  0.60632136  0.95689047     1.54400
O3368       O  0.85669749  0.59386897  0.95964250    -0.80500
O3369       O  0.94369780  0.60397217  0.98818062    -0.78800
O3370       O  0.85150212  0.60417163  0.50736760    -0.83000
O3371       O  0.89977939  0.65164195  0.50659935    -0.77900
O3372       O  0.88542198  0.56953621  0.94967554    -0.79700
O3373       O  0.93802053  0.61684908  0.54923768    -0.82400
C3374       C  0.90483075  0.65818191  0.97845618     0.98300
C3375       C  0.84317493  0.59520160  0.98074007     1.05800
O3376       O  0.89823373  0.60417687  0.50252935    -1.11400
O3377       O  0.88904847  0.56831055  0.55419136    -0.73800
O3378       O  0.86803057  0.58822870  0.55920141    -0.77300
O3379       O  0.90327716  0.64331310  0.95733652    -0.78000
C3380       C  0.87181434  0.57070153  0.56627486     0.97300
O3381       O  0.91602379  0.63534051  0.55806289    -0.76000
O3382       O  0.89586420  0.55662891  0.99236550    -0.81200
C3383       C  0.94825969  0.61546415  0.96251008     0.99900
C3384       C  0.88667039  0.55279313  0.96525018     1.05800
O3385       O  0.93237670  0.61925448  0.94869297    -0.76800
C3386       C  0.93509271  0.63335904  0.56231061     1.04100
Fe3387     Fe  0.87922456  0.76307884  0.52668863     1.65800
Fe3388     Fe  0.91436302  0.82618963  0.51952707     1.73200
Fe3389     Fe  0.89442381  0.78925219  0.95425992     1.54400
O3390       O  0.90568887  0.76310167  0.95485720    -0.80500
O3391       O  0.90067698  0.84135797  0.98809840    -0.78800
O3392       O  0.89159320  0.74412034  0.50060920    -0.83000
O3393       O  0.84643828  0.74862234  0.50227635    -0.77900
O3394       O  0.93162057  0.81669446  0.94844502    -0.79700
O3395       O  0.88459676  0.81916160  0.54773231    -0.82400
C3396       C  0.84095528  0.74799856  0.97382770     0.98300
C3397       C  0.90213730  0.74644243  0.97465887     1.05800
O3398       O  0.89606065  0.79286950  0.50008673    -1.11400
O3399       O  0.93123164  0.81560212  0.55332031    -0.73800
O3400       O  0.91003387  0.77407181  0.55409912    -0.77300
O3401       O  0.85700687  0.76109140  0.95327918    -0.78000
C3402       C  0.92816757  0.79487401  0.56284523     0.97300
O3403       O  0.86481650  0.77814715  0.55635286    -0.76000
O3404       O  0.94568696  0.83714248  0.99305953    -0.81200
C3405       C  0.88846336  0.83499452  0.96282366     0.99900
C3406       C  0.94909361  0.83301788  0.96527647     1.05800
O3407       O  0.88298174  0.81497325  0.94867743    -0.76800
C3408       C  0.86753872  0.79947606  0.56064724     1.04100
Fe3409     Fe  0.90440517  0.95404319  0.85945332     1.65800
Fe3410     Fe  0.84088503  0.92040320  0.85402076     1.73200
Fe3411     Fe  0.87730708  0.93914364  0.78781864     1.54400
O3412       O  0.90603937  0.97627563  0.78630247    -0.80500
O3413       O  0.82766020  0.88912521  0.82636891    -0.78800
O3414       O  0.91906647  0.98664611  0.83502016    -0.83000
O3415       O  0.92255046  0.94095328  0.83284996    -0.77900
O3416       O  0.85225862  0.95145884  0.78321526    -0.79700
O3417       O  0.85114443  0.90210553  0.88616251    -0.82400
C3418       C  0.91961298  0.93021925  0.80699572     0.98300
C3419       C  0.91934106  0.99221274  0.80671472     1.05800
O3420       O  0.87412189  0.93773343  0.83370484    -1.11400
O3421       O  0.84937711  0.94989505  0.88385463    -0.73800
O3422       O  0.89063864  0.96928894  0.88978457    -0.77300
O3423       O  0.90277404  0.92697431  0.78767197    -0.78000
C3424       C  0.86960776  0.96685660  0.89589573     0.97300
O3425       O  0.89286325  0.92328888  0.88669005    -0.76000
O3426       O  0.82689084  0.93623231  0.82417037    -0.81200
C3427       C  0.83194621  0.88534714  0.79875709     0.99900
C3428       C  0.83331152  0.94805478  0.79856968     1.05800
O3429       O  0.84920679  0.90232740  0.78225759    -0.76800
C3430       C  0.87199125  0.90512907  0.89534586     1.04100
Fe3431     Fe  0.54702424  0.94907599  0.86060182     1.65800
Fe3432     Fe  0.58001338  0.91992632  0.85170192     1.73200
Fe3433     Fe  0.55981280  0.93775570  0.78757795     1.54400
O3434       O  0.52297717  0.93011723  0.78868551    -0.80500
O3435       O  0.61098266  0.94036958  0.82430534    -0.78800
O3436       O  0.51316912  0.92963661  0.83845550    -0.83000
O3437       O  0.55809123  0.97993617  0.83335850    -0.77900
O3438       O  0.54624128  0.89986562  0.78210700    -0.79700
O3439       O  0.59803074  0.94731622  0.88531527    -0.82400
C3440       C  0.56927507  0.98866758  0.80780751     0.98300
C3441       C  0.50728313  0.92635441  0.80998777     1.05800
O3442       O  0.56236638  0.93561428  0.83321717    -1.11400
O3443       O  0.55060007  0.89713285  0.88098429    -0.73800
O3444       O  0.53399298  0.92043806  0.89196764    -0.77300
O3445       O  0.57323545  0.97583127  0.78836964    -0.78000
C3446       C  0.53541400  0.90107857  0.89592558     0.97300
O3447       O  0.57921506  0.96969110  0.88562573    -0.76000
O3448       O  0.56489234  0.89113307  0.82021786    -0.81200
C3449       C  0.61396371  0.94729886  0.79615635     0.99900
C3450       C  0.55184103  0.88514289  0.79560412     1.05800
O3451       O  0.59635199  0.94612171  0.77973161    -0.76800
C3452       C  0.59642344  0.96582265  0.89440867     1.04100
Fe3453     Fe  0.54671802  0.59560656  0.85978167     1.65800
Fe3454     Fe  0.58124980  0.65887107  0.85280203     1.73200
Fe3455     Fe  0.56272580  0.62170729  0.78732997     1.54400
O3456       O  0.57144265  0.59357340  0.78855830    -0.80500
O3457       O  0.56574613  0.67303215  0.82262475    -0.78800
O3458       O  0.56139802  0.57768245  0.83630701    -0.83000
O3459       O  0.51503388  0.57970637  0.83340366    -0.77900
O3460       O  0.60049261  0.64723919  0.78267799    -0.79700
O3461       O  0.55222671  0.65119891  0.88324006    -0.82400
C3462       C  0.50909794  0.58106755  0.80568416     0.98300
C3463       C  0.56996072  0.57843718  0.80947688     1.05800
O3464       O  0.56358863  0.62545711  0.83319512    -1.11400
O3465       O  0.59978290  0.64891591  0.88485939    -0.73800
O3466       O  0.57621261  0.60765148  0.88958816    -0.77300
O3467       O  0.52470002  0.59566829  0.78564980    -0.78000
C3468       C  0.59545707  0.62826922  0.89639174     0.97300
O3469       O  0.53005798  0.60977860  0.88651430    -0.76000
O3470       O  0.61203613  0.67128027  0.82470425    -0.81200
C3471       C  0.55662574  0.66798239  0.79542318     0.99900
C3472       C  0.61673268  0.66561023  0.79839493     1.05800
O3473       O  0.55404497  0.64939956  0.78012240    -0.76800
C3474       C  0.53385292  0.63109146  0.89363904     1.04100
C3475       C  0.58960773  0.55435701  0.82649736     0.24700
C3476       C  0.57744714  0.55995024  0.80302324    -0.23400
C3477       C  0.56795330  0.54426689  0.77698776     0.19600
C3478       C  0.56790030  0.52169733  0.77638138     0.24700
C3479       C  0.57744296  0.51488649  0.80173518    -0.23300
C3480       C  0.58966148  0.53204197  0.82578859     0.19600
F3481       F  0.59937371  0.52594944  0.85027803    -0.13300
F3482       F  0.59939664  0.56942509  0.85162188    -0.15600
F3483       F  0.55559446  0.00516517  0.75319919    -0.15600
F3484       F  0.55601729  0.54922739  0.75412536    -0.13300
C3485       C  0.94127423  0.53742014  0.81812908     0.24700
C3486       C  0.93731902  0.51817434  0.79778070    -0.23400
C3487       C  0.95478569  0.52314990  0.77405715     0.19600
C3488       C  0.97765906  0.54583291  0.77376415     0.24700
C3489       C  0.98298340  0.56354291  0.79709675    -0.23300
C3490       C  0.96399152  0.55998903  0.81777652     0.19600
F3491       F  0.96857972  0.57721559  0.84000281    -0.13300
F3492       F  0.92427699  0.53330507  0.84062268    -0.15600
F3493       F  0.49581756  0.54888833  0.75359688    -0.15600
F3494       F  0.95144143  0.00478017  0.75423430    -0.13300
C3495       C  0.93974483  0.90614298  0.82135874     0.24700
C3496       C  0.93725837  0.92181567  0.79996212    -0.23400
C3497       C  0.95564903  0.93416399  0.77707941     0.19600
C3498       C  0.97772364  0.93322662  0.77795544     0.24700
C3499       C  0.98156752  0.92005073  0.80190075    -0.23300
C3500       C  0.96172479  0.90520893  0.82230993     0.19600
F3501       F  0.96447378  0.89148402  0.84488338    -0.13300
F3502       F  0.92181256  0.89357586  0.84320121    -0.15600
F3503       F  0.49645223  0.94761747  0.75781383    -0.15600
F3504       F  0.95364740  0.94957363  0.75638580    -0.13300
C3505       C  0.86118681  0.84388114  0.92795478     0.24700
C3506       C  0.88150403  0.85238275  0.94871255    -0.23400
C3507       C  0.89643030  0.87820042  0.95441075     0.19600
C3508       C  0.89216006  0.89514598  0.93835871     0.24700
C3509       C  0.87278343  0.88678450  0.91638237    -0.23300
C3510       C  0.85679439  0.86097652  0.91200413     0.19600
F3511       F  0.83804589  0.85237504  0.89075169    -0.13300
F3512       F  0.84593798  0.81909094  0.92252886    -0.15600
F3513       F  0.90770936  0.91996425  0.94345754    -0.15600
F3514       F  0.91629011  0.88734211  0.97406573    -0.13300
C3515       C  0.00394529  0.85691917  0.90989969     0.24700
C3516       C  0.51749128  0.88232167  0.91789754    -0.23400
C3517       C  0.51053531  0.89039874  0.94440570     0.19600
C3518       C  0.98910490  0.87389764  0.96102574     0.24700
C3519       C  0.97413326  0.84893436  0.95137714    -0.23300
C3520       C  0.98228228  0.84034389  0.92641433     0.19600
F3521       F  0.96871668  0.81616562  0.91717169    -0.13300
F3522       F  0.01037100  0.84859062  0.88452811    -0.15600
F3523       F  0.48195839  0.88298814  0.98494089    -0.15600
F3524       F  0.52369470  0.91475179  0.95312236    -0.13300
C3525       C  0.98427890  0.60915905  0.95463206     0.24700
C3526       C  0.97262808  0.62298861  0.94772288    -0.23400
C3527       C  0.98378781  0.64243730  0.92560316     0.19600
C3528       C  0.00526226  0.64676680  0.90934828     0.24700
C3529       C  0.51553059  0.63151075  0.91486682    -0.23300
C3530       C  0.50539411  0.61340585  0.93844794     0.19600
F3531       F  0.51527793  0.59880504  0.94489146    -0.13300
F3532       F  0.97430256  0.59013065  0.97559752    -0.15600
F3533       F  0.01492394  0.66461716  0.88687890    -0.15600
F3534       F  0.97365592  0.65681034  0.91924078    -0.13300
C3535       C  0.85616549  0.99740845  0.91006229     0.24700
C3536       C  0.86956037  0.98538617  0.91721067    -0.23400
C3537       C  0.88614999  0.99390409  0.94251607     0.19600
C3538       C  0.89044014  0.51487677  0.95919742     0.24700
C3539       C  0.87859291  0.52822551  0.95067033    -0.23300
C3540       C  0.86079103  0.51883470  0.92649124     0.19600
F3541       F  0.84840055  0.53071319  0.91822012    -0.13300
F3542       F  0.83996898  0.98958448  0.88577700    -0.15600
F3543       F  0.90776172  0.52313601  0.98227160    -0.15600
F3544       F  0.89895840  0.98236289  0.95043553    -0.13300
C3545       C  0.92506277  0.70304627  0.99227368     0.24700
C3546       C  0.91135876  0.68394586  0.97068247    -0.23400
C3547       C  0.89962565  0.68859026  0.94566400     0.19600
C3548       C  0.89904836  0.71083333  0.94456252     0.24700
C3549       C  0.91024508  0.72847952  0.96839096    -0.23300
C3550       C  0.92449158  0.72511527  0.99111393     0.19600
F3551       F  0.93589978  0.74226063  0.01396971    -0.13300
F3552       F  0.93718695  0.69941900  0.01616841    -0.15600
F3553       F  0.88511607  0.71374958  0.92245432    -0.15600
F3554       F  0.88620705  0.67048237  0.92451626    -0.13300
C3555       C  0.62212933  0.60387009  0.95609418     0.24700
C3556       C  0.64791145  0.61776627  0.94921399    -0.23400
C3557       C  0.65659221  0.63740773  0.92744591     0.19600
C3558       C  0.63967247  0.64224152  0.91180293     0.24700
C3559       C  0.61379265  0.62732900  0.91744205    -0.23300
C3560       C  0.60531412  0.60861407  0.94041034     0.19600
F3561       F  0.58049186  0.59416091  0.94688237    -0.13300
F3562       F  0.61284676  0.58451931  0.97658840    -0.15600
F3563       F  0.64845403  0.66033333  0.88963345    -0.15600
F3564       F  0.68138292  0.65157033  0.92077754    -0.13300
C3565       C  0.65793164  0.51747496  0.92564087     0.24700
C3566       C  0.64983872  0.52537765  0.95145897    -0.23400
C3567       C  0.62452484  0.51101433  0.96061073     0.19600
C3568       C  0.60750432  0.99071681  0.94278003     0.24700
C3569       C  0.61530680  0.98402178  0.91588989    -0.23300
C3570       C  0.64073829  0.49684967  0.90812748     0.19600
F3571       F  0.64868184  0.49065047  0.88218314    -0.13300
F3572       F  0.68228526  0.53028376  0.91656438    -0.15600
F3573       F  0.58298010  0.97807435  0.95116958    -0.15600
F3574       F  0.61595063  0.01759068  0.98548211    -0.13300
C3575       C  0.77274667  0.70302069  0.48399833     0.24700
C3576       C  0.76971083  0.68384933  0.96410439    -0.23400
C3577       C  0.78794399  0.68905686  0.94137049     0.19600
C3578       C  0.81060867  0.71196466  0.94170672     0.24700
C3579       C  0.81505338  0.72964578  0.96481996    -0.23300
C3580       C  0.79532728  0.72576693  0.48443538     0.19600
F3581       F  0.79887348  0.74298354  0.50619242    -0.13300
F3582       F  0.75488132  0.69866318  0.50533944    -0.15600
F3583       F  0.82935305  0.71533552  0.92241689    -0.15600
F3584       F  0.78533986  0.67084360  0.92182149    -0.13300
C3585       C  0.78856845  0.59756496  0.94729679     0.24700
C3586       C  0.77196846  0.58819957  0.97255882    -0.23400
C3587       C  0.77655690  0.57583629  0.49680053     0.19600
C3588       C  0.79891242  0.57566354  0.49773256     0.24700
C3589       C  0.81692406  0.58764120  0.97428544    -0.23300
C3590       C  0.81098417  0.59723234  0.94812236     0.19600
F3591       F  0.82817481  0.60908378  0.92532253    -0.13300
F3592       F  0.78462865  0.60975230  0.92378896    -0.15600
F3593       F  0.80393531  0.56572397  0.52291760    -0.15600
F3594       F  0.76037140  0.56593428  0.52103721    -0.13300
C3595       C  0.93871588  0.77500931  0.60609807     0.24700
C3596       C  0.94668086  0.79437438  0.58410890    -0.23400
C3597       C  0.97251553  0.81108476  0.58013493     0.19600
C3598       C  0.99001952  0.80731073  0.59616932     0.24700
C3599       C  0.98197945  0.78700469  0.61684775    -0.23300
C3600       C  0.95611390  0.77144556  0.62241083     0.19600
F3601       F  0.94743796  0.75164089  0.64211603    -0.13300
F3602       F  0.91391560  0.75890466  0.61108839    -0.15600
F3603       F  0.51479782  0.82317785  0.59087315    -0.15600
F3604       F  0.98084612  0.83004045  0.55917939    -0.13300
C3605       C  0.97948459  0.66622591  0.57330180     0.24700
C3606       C  0.95445003  0.65175047  0.58303917    -0.23400
C3607       C  0.94683487  0.65805316  0.61038991     0.19600
C3608       C  0.96321692  0.67972258  0.62633096     0.24700
C3609       C  0.98769576  0.69562029  0.61519768    -0.23300
C3610       C  0.99603410  0.68817265  0.58921638     0.19600
F3611       F  0.51980553  0.70258703  0.57849458    -0.13300
F3612       F  0.98732644  0.66027612  0.54706717    -0.15600
F3613       F  0.95430410  0.68607182  0.65121826    -0.15600
F3614       F  0.92287680  0.64391249  0.62064821    -0.13300
C3615       C  0.55276528  0.82673966  0.77424424     0.24700
C3616       C  0.53651831  0.81795654  0.74870768    -0.23400
C3617       C  0.52258722  0.82929877  0.74109620     0.19600
C3618       C  0.52649921  0.85050949  0.75725498     0.24700
C3619       C  0.54424891  0.86049657  0.78150397    -0.23300
C3620       C  0.55648649  0.84759398  0.79060198     0.19600
F3621       F  0.57338629  0.85593931  0.81415100    -0.13300
F3622       F  0.06592600  0.81566435  0.78262090    -0.15600
F3623       F  0.51358505  0.86171332  0.74837528    -0.15600
F3624       F  0.50664321  0.82104778  0.71654504    -0.13300
C3625       C  0.52696985  0.69415538  0.74129587     0.24700
C3626       C  0.54152239  0.71985125  0.74769080    -0.23400
C3627       C  0.55949494  0.72795774  0.77149175     0.19600
C3628       C  0.56356500  0.71092396  0.78780163     0.24700
C3629       C  0.54993332  0.68531362  0.78046261    -0.23300
C3630       C  0.53128983  0.67703736  0.75735733     0.19600
F3631       F  0.51761027  0.65246227  0.74984106    -0.13300
F3632       F  0.00969702  0.68577888  0.71820314    -0.15600
F3633       F  0.58204399  0.71983075  0.80945856    -0.15600
F3634       F  0.57376552  0.75263085  0.77835507    -0.13300
C3635       C  0.69805857  0.51136477  0.59325319     0.24700
C3636       C  0.71661957  0.52016447  0.61645816    -0.23400
C3637       C  0.72882125  0.54556944  0.62478430     0.19600
C3638       C  0.72353962  0.56201175  0.60918014     0.24700
C3639       C  0.70589523  0.55347880  0.58500266    -0.23300
C3640       C  0.69262434  0.52789071  0.57777726     0.19600
F3641       F  0.67571487  0.51919260  0.55424611    -0.13300
F3642       F  0.68556364  0.48690117  0.58506869    -0.15600
F3643       F  0.73644658  0.58658613  0.61692171    -0.15600
F3644       F  0.74709527  0.55494661  0.64671950    -0.13300
C3645       C  0.84179489  0.52658886  0.58151037     0.24700
C3646       C  0.85446965  0.55211265  0.58872292    -0.23400
C3647       C  0.84712359  0.56022678  0.61476822     0.19600
C3648       C  0.82584707  0.54354821  0.63153856     0.24700
C3649       C  0.81126482  0.51841059  0.62220963    -0.23300
C3650       C  0.82020848  0.50982414  0.59801276     0.19600
F3651       F  0.80725205  0.98554692  0.58898195    -0.13300
F3652       F  0.84890999  0.51827905  0.55673886    -0.15600
F3653       F  0.81849815  0.55262884  0.65524287    -0.15600
F3654       F  0.85974344  0.58473874  0.62281237    -0.13300
C3655       C  0.65285934  0.94513422  0.79156255     0.24700
C3656       C  0.63866779  0.95573306  0.78166933    -0.23400
C3657       C  0.64760831  0.97288500  0.75673859     0.19600
C3658       C  0.66963148  0.97827298  0.74106584     0.24700
C3659       C  0.68267846  0.96622387  0.74977985    -0.23300
C3660       C  0.67452198  0.95026491  0.77571914     0.19600
F3661       F  0.68700984  0.93867676  0.78490481    -0.13300
F3662       F  0.64484832  0.92830753  0.81523392    -0.15600
F3663       F  0.67715919  0.99381184  0.71608153    -0.15600
F3664       F  0.63472444  0.98392446  0.74705988    -0.13300
C3665       C  0.79261338  0.94745231  0.79646284     0.24700
C3666       C  0.81729341  0.95717758  0.78546257    -0.23400
C3667       C  0.82555542  0.97401041  0.76015171     0.19600
C3668       C  0.80886337  0.97908789  0.74454987     0.24700
C3669       C  0.78369693  0.96725952  0.75378667    -0.23300
C3670       C  0.77594688  0.95224264  0.78050234     0.19600
F3671       F  0.75179107  0.94116081  0.79023643    -0.13300
F3672       F  0.78392683  0.93191165  0.82143001    -0.15600
F3673       F  0.81660624  0.49348748  0.71852820    -0.15600
F3674       F  0.84932722  0.48447396  0.74931259    -0.13300
C3675       C  0.63371663  0.89510168  0.65394350     0.24700
C3676       C  0.65285339  0.89895054  0.63334128    -0.23400
C3677       C  0.64779706  0.88148598  0.60978119     0.19600
C3678       C  0.62482370  0.85891753  0.60937215     0.24700
C3679       C  0.60691151  0.85380009  0.63254908    -0.23300
C3680       C  0.61089626  0.87261925  0.65361771     0.19600
F3681       F  0.59373595  0.86813103  0.67603231    -0.13300
F3682       F  0.63815336  0.91202142  0.67653054    -0.16500
F3683       F  0.62158783  0.84079239  0.58924681    -0.15600
F3684       F  0.66622415  0.88468773  0.59002604    -0.13300
C3685       C  0.82251520  0.78456329  0.62611476     0.24700
C3686       C  0.80595148  0.79146115  0.61327591    -0.23400
C3687       C  0.81245163  0.80477150  0.58487435     0.19600
C3688       C  0.83395498  0.80937380  0.56879383     0.24700
C3689       C  0.84913947  0.80063417  0.58067603    -0.23300
C3690       C  0.84372118  0.78892021  0.60977531     0.19600
F3691       F  0.85840571  0.78057609  0.62171127    -0.13300
F3692       F  0.81752146  0.77213892  0.65358495    -0.15600
F3693       F  0.83873427  0.82042929  0.54038440    -0.15600
F3694       F  0.79744323  0.81227261  0.57177388    -0.13300
C3695       C  0.68931836  0.66524529  0.57153749     0.24700
C3696       C  0.69994952  0.65125610  0.58178053    -0.23400
C3697       C  0.71387094  0.65805647  0.60937142     0.19600
C3698       C  0.71849582  0.67936284  0.62553923     0.24700
C3699       C  0.70967140  0.69476253  0.61410453    -0.23300
C3700       C  0.69414296  0.68686514  0.58752320     0.19600
F3701       F  0.68440002  0.70051450  0.57626308    -0.13300
F3702       F  0.67600837  0.65917457  0.54469728    -0.15600
F3703       F  0.73310600  0.68567723  0.65128756    -0.15600
F3704       F  0.72419040  0.64468808  0.61980605    -0.13300
C3705       C  0.78991231  0.84650917  0.79274295     0.24700
C3706       C  0.81539355  0.86054911  0.78447481    -0.23400
C3707       C  0.82417237  0.85179714  0.76032989     0.19600
C3708       C  0.80750052  0.83048859  0.74340358     0.24700
C3709       C  0.78174036  0.81778638  0.75007484    -0.23300
C3710       C  0.77328062  0.82544640  0.77562632     0.19600
F3711       F  0.74859143  0.81307783  0.78325489    -0.13300
F3712       F  0.78064197  0.85415841  0.81592144    -0.15600
F3713       F  0.81628344  0.82345665  0.71904238    -0.15600
F3714       F  0.84879128  0.86434666  0.75241885    -0.13300
C3715       C  0.65463669  0.70792733  0.79228910     0.24700
C3716       C  0.64158243  0.68240556  0.78442031    -0.23400
C3717       C  0.65096454  0.67415500  0.76040339     0.19600
C3718       C  0.67183821  0.69139289  0.74311423     0.24700
C3719       C  0.68331832  0.71702509  0.74942511    -0.23300
C3720       C  0.67518135  0.72501726  0.77483967     0.19600
F3721       F  0.68633895  0.74970437  0.78172680    -0.13300
F3722       F  0.64630968  0.71682651  0.81513601    -0.15600
F3723       F  0.67945196  0.68327689  0.71864151    -0.15600
F3724       F  0.63927245  0.64960459  0.75271396    -0.13300
C3725       C  0.73693477  0.85855986  0.61115435     0.24700
C3726       C  0.74689229  0.85162685  0.63595927    -0.23400
C3727       C  0.76019513  0.86905667  0.65945493     0.19600
C3728       C  0.76043132  0.89153937  0.66055665     0.24700
C3729       C  0.74755767  0.89705939  0.63802293    -0.23300
C3730       C  0.73724610  0.88125046  0.61219468     0.19600
F3731       F  0.72478653  0.88621314  0.59004158    -0.13300
F3732       F  0.72423494  0.84215113  0.58802212    -0.15600
F3733       F  0.77132731  0.90691987  0.68517995    -0.15600
F3734       F  0.77087584  0.86319589  0.68304986    -0.13300
C3735       C  0.63017729  0.74036625  0.65180290     0.24700
C3736       C  0.64964093  0.75513667  0.63103320    -0.23400
C3737       C  0.64549509  0.76794871  0.60696941     0.19600
C3738       C  0.62345311  0.76890805  0.60656298     0.24700
C3739       C  0.60559070  0.75695956  0.63012669    -0.23300
C3740       C  0.60821007  0.74121837  0.65128233     0.19600
F3741       F  0.59062964  0.72882020  0.67355852    -0.13300
F3742       F  0.63353638  0.72721814  0.67461988    -0.15600
F3743       F  0.62115959  0.78414571  0.58587709    -0.15600
F3744       F  0.66408862  0.78229866  0.58662083    -0.13300
loop_ 
_geom_bond_atom_site_label_1 
_geom_bond_atom_site_label_2 
_geom_bond_distance 
_geom_bond_site_symmetry_2 
_ccdc_geom_bond_type 
Fe1          O17   2.047       .  S
Fe1           O7   2.038       .  S
Fe1          O14   2.035       .  S
Fe1           O6   2.045       .  S
Fe1          O12   1.965       .  S
Fe2           O5   2.054       .  S
Fe2           O9   2.083       .  S
Fe2          O13   2.074       .  S
Fe2          O18   2.064       .  S
Fe2          O12   1.978       .  S
Fe3          O21   2.059       .  S
Fe3           O8   2.078       .  S
Fe3          O15   2.085       .  S
Fe3           O4   2.065       .  S
Fe3          O12   1.992       .  S
O4           C11   1.266       .  A
O5           C19   1.267       .  A
O6           C11   1.265       .  A
O7           C10   1.266       .  A
O8           C20   1.272       .  A
O9           C22   1.270       .  A
C10          O15   1.271       .  A
C10         C450   1.473       .  S
C11         C460   1.467       .  S
O13          C16   1.268       .  A
O14          C16   1.263       .  A
C16         C443   1.468       .  S
O17          C22   1.265       .  A
O18          C20   1.271       .  A
C19          O21   1.267       .  A
C19         C410   1.485       .  S
C20         C423   1.492       .  S
C22         C433   1.479       .  S
Fe23         O39   2.041       .  S
Fe23         O29   2.043       .  S
Fe23         O36   2.043       .  S
Fe23         O28   2.046       .  S
Fe23         O34   1.966       .  S
Fe24         O27   2.047   1_565  S
Fe24         O35   2.065       .  S
Fe24         O40   2.061   1_565  S
Fe24        O967   2.083       .  S
Fe24        O970   1.981       .  S
Fe25         O43   2.074       .  S
Fe25         O30   2.064       .  S
Fe25         O37   2.070       .  S
Fe25         O26   2.078       .  S
Fe25         O34   1.990       .  S
O26          C33   1.269       .  A
O27          C41   1.266       .  A
O28          C33   1.266       .  A
O29          C32   1.266       .  A
O30         C978   1.270       .  A
O31        Fe960   2.083       .  S
O31          C44   1.270       .  A
C32          O37   1.268       .  A
C32         C400   1.466       .  S
C33         C453   1.475       .  S
O34        Fe960   1.981       .  S
O35         C974   1.266       .  A
O36          C38   1.264       .  A
C38         O971   1.266       .  A
C38         C393   1.466       .  S
O39          C44   1.264       .  A
O40          C42   1.270       .  A
C41         O979   1.270   1_545  A
C41         C360   1.480       .  S
C42         O966   1.270   1_545  A
C42         C373   1.484       .  S
O43         C977   1.270       .  A
C44         C383   1.475       .  S
Fe45         O61   2.040       .  S
Fe45         O51   2.043       .  S
Fe45         O58   2.047       .  S
Fe45         O50   2.040       .  S
Fe45         O56   1.965       .  S
Fe46         O49   2.047       .  S
Fe46         O62   2.067       .  S
Fe46       O1925   2.084       .  S
Fe46       O1929   2.074       .  S
Fe46       O1928   1.976       .  S
Fe47         O65   2.067       .  S
Fe47         O52   2.071       .  S
Fe47         O59   2.070       .  S
Fe47         O48   2.074       .  S
Fe47         O56   1.990       .  S
O48          C55   1.268       .  A
O49          C63   1.267       .  A
O50          C55   1.264       .  A
O51          C54   1.266       .  A
O52        C1936   1.271   1_455  A
O53       Fe1918   2.084       .  S
O53          C66   1.269       .  A
C54          O59   1.268       .  A
C54         C463   1.464       .  S
C55         C403   1.468       .  S
O56       Fe1918   1.976       .  S
O57       Fe1918   2.074       .  S
O57          C60   1.269       .  A
O58          C60   1.267       .  A
C60         C340   1.473       .  S
O61          C66   1.262       .  A
O62          C64   1.270       .  A
C63        O1937   1.269       .  A
C63         C333   1.478       .  S
C64        O1924   1.271       .  A
C64         C323   1.486       .  S
O65        C1935   1.269       .  A
C66         C350   1.479       .  S
Fe67         O83   2.039       .  S
Fe67         O73   2.041       .  S
Fe67         O80   2.039       .  S
Fe67         O72   2.039       .  S
Fe67         O78   1.968       .  S
Fe68         O75   2.077       .  S
Fe68         O79   2.087       .  S
Fe68        O539   2.065   1_554  S
Fe68        O552   2.055   1_554  S
Fe68         O78   1.980       .  S
Fe69         O87   2.065       .  S
Fe69         O74   2.076       .  S
Fe69         O81   2.084       .  S
Fe69         O70   2.077       .  S
Fe69        O546   1.989       .  S
O70          C77   1.268       .  A
O71        Fe536   2.065       .  S
O71          C85   1.269       .  A
O72         C545   1.264   1_554  A
O73         C544   1.265   1_554  A
O74          C86   1.273       .  A
O75          C88   1.270       .  A
C76          O81   1.271       .  A
C76         O541   1.265       .  A
C76         C310   1.472       .  S
C77         O540   1.264       .  A
C77         C300   1.470       .  S
O78        Fe537   1.989   1_554  S
O79          C82   1.270       .  A
O80          C82   1.263       .  A
C82         C420   1.474       .  S
O83          C88   1.264       .  A
O84        Fe536   2.055       .  S
O84          C86   1.269       .  A
C85          O87   1.269       .  A
C85         C290   1.487       .  S
C86         C280   1.481       .  S
C88         C363   1.474       .  S
Fe89        O105   2.039       .  S
Fe89         O95   2.042       .  S
Fe89        O102   2.039       .  S
Fe89         O94   2.047       .  S
Fe89        O100   1.964       .  S
Fe90         O97   2.071       .  S
Fe90        O101   2.071       .  S
Fe90        O561   2.040   1_554  S
Fe90        O574   2.055   1_554  S
Fe90        O100   1.978       .  S
Fe91        O109   2.080       .  S
Fe91         O96   2.082       .  S
Fe91        O103   2.083       .  S
Fe91         O92   2.078       .  S
Fe91        O568   1.991       .  S
O92          C99   1.271       .  A
O93        Fe558   2.040       .  S
O93         C107   1.266       .  A
O94         C567   1.267   1_554  A
O95         C566   1.265   1_554  A
O96         C108   1.272       .  A
O97         C110   1.267       .  A
C98         O103   1.270       .  A
C98         O563   1.265       .  A
C98         C270   1.477       .  S
C99         O562   1.267       .  A
C99         C313   1.473       .  S
O100       Fe559   1.991   1_554  S
O101        C104   1.267       .  A
O102        C104   1.264       .  A
C104        C370   1.468       .  S
O105        C110   1.264       .  A
O106       Fe558   2.055       .  S
O106        C108   1.268       .  A
C107        O109   1.271       .  A
C107        C250   1.481       .  S
C108        C263   1.487       .  S
C110        C330   1.467       .  S
Fe111       O127   2.047       .  S
Fe111       O117   2.047       .  S
Fe111       O124   2.045       .  S
Fe111       O116   2.047       .  S
Fe111       O122   1.962       .  S
Fe112       O119   2.066       .  S
Fe112       O123   2.084       .  S
Fe112       O583   2.061   1_554  S
Fe112       O596   2.049   1_554  S
Fe112       O122   1.975       .  S
Fe113       O131   2.070       .  S
Fe113       O118   2.069       .  S
Fe113       O125   2.076       .  S
Fe113       O114   2.075       .  S
Fe113       O590   1.985       .  S
O114        C121   1.269       .  A
O115       Fe580   2.061       .  S
O115        C129   1.270       .  A
O116        C589   1.267   1_554  A
O117        C588   1.266   1_554  A
O118        C130   1.270       .  A
O119        C132   1.266       .  A
C120        O125   1.268       .  A
C120        O585   1.266       .  A
C120        C303   1.472       .  S
C121        O584   1.267       .  A
C121        C273   1.469       .  S
O122       Fe581   1.985   1_554  S
O123        C126   1.271       .  A
O124        C126   1.265       .  A
C126        C320   1.481       .  S
O127        C132   1.265       .  A
O128       Fe580   2.049       .  S
O128        C130   1.267       .  A
C129        O131   1.271       .  A
C129        C230   1.482       .  S
C130        C243   1.477       .  S
C132        C413   1.465       .  S
Fe133       O149   2.034       .  S
Fe133       O139   2.050       .  S
Fe133       O146   2.046       .  S
Fe133       O138   2.038       .  S
Fe133       O144   1.962       .  S
Fe134       O137   2.067       .  S
Fe134       O141   2.084       .  S
Fe134       O145   2.082       .  S
Fe134       O150   2.058       .  S
Fe134       O144   1.979       .  S
Fe135       O153   2.067       .  S
Fe135       O140   2.064       .  S
Fe135       O147   2.074       .  S
Fe135       O136   2.078       .  S
Fe135       O144   1.985       .  S
O136        C143   1.268       .  A
O137        C151   1.269       .  A
O138        C143   1.264       .  A
O139        C142   1.266       .  A
O140        C152   1.271       .  A
O141        C154   1.272       .  A
C142        O147   1.269       .  A
C142        C220   1.468       .  S
C143       C1146   1.470       .  S
O145        C148   1.269       .  A
O146        C148   1.264       .  A
C148        C260   1.479       .  S
O149        C154   1.264       .  A
O150        C152   1.270       .  A
C151        O153   1.269       .  A
C151        C430   1.485       .  S
C152        C390   1.484       .  S
C154        C233   1.475       .  S
Fe155       O171   2.046       .  S
Fe155       O161   2.043       .  S
Fe155       O168   2.041       .  S
Fe155       O160   2.049       .  S
Fe155       O166   1.958       .  S
Fe156       O159   2.051       .  S
Fe156       O163   2.080       .  S
Fe156       O167   2.070       .  S
Fe156       O172   2.058       .  S
Fe156       O166   1.967       .  S
Fe157       O175   2.081       .  S
Fe157       O162   2.076       .  S
Fe157       O169   2.074       .  S
Fe157       O158   2.086       .  S
Fe157       O166   1.981       .  S
O158        C165   1.272       .  A
O159        C173   1.267       .  A
O160        C165   1.267       .  A
O161        C164   1.266       .  A
O162        C174   1.272       .  A
O163        C176   1.270       .  A
C164        O169   1.269       .  A
C164       C1139   1.468       .  S
C165       C2095   1.478   1_455  S
O167        C170   1.267       .  A
O168        C170   1.263       .  A
C170        C240   1.471       .  S
O171        C176   1.266       .  A
O172        C174   1.270       .  A
C173        O175   1.272       .  A
C173        C380   1.482       .  S
C174        C343   1.488       .  S
C176        C293   1.471       .  S
Fe177       O193   2.032       .  S
Fe177       O183   2.038       .  S
Fe177       O190   2.040       .  S
Fe177       O182   2.039       .  S
Fe177       O188   1.964       .  S
Fe178       O181   2.060       .  S
Fe178       O185   2.079       .  S
Fe178       O189   2.080       .  S
Fe178       O194   2.052       .  S
Fe178       O188   1.982       .  S
Fe179       O197   2.074       .  S
Fe179       O184   2.063       .  S
Fe179       O191   2.073       .  S
Fe179       O180   2.080       .  S
Fe179       O188   1.989       .  S
O180        C187   1.269       .  A
O181        C195   1.270       .  A
O182        C187   1.265       .  A
O183        C186   1.264       .  A
O184        C196   1.269       .  A
O185        C198   1.268       .  A
C186        O191   1.268       .  A
C186       C2085   1.467   1_455  S
C187        C200   1.472       .  S
O189        C192   1.270       .  A
O190        C192   1.264       .  A
C192        C283   1.478       .  S
O193        C198   1.263       .  A
O194        C196   1.267       .  A
C195        O197   1.272       .  A
C195        C353   1.484       .  S
C196        C440   1.479       .  S
C198        C253   1.473       .  S
C199        C200   1.406       .  A
C199        C204   1.392       .  A
C199        F206   1.359       .  S
C200        C201   1.407       .  A
C201        C202   1.404       .  A
C201        F208   1.357       .  S
C202        C203   1.405       .  A
C202       F1143   1.358       .  S
C203       C1100   1.467   1_545  S
C203        C204   1.404       .  A
C204        F205   1.359       .  S
F207       C1138   1.357       .  S
C209        C210   1.405       .  A
C209        C214   1.393       .  A
C209        F216   1.359       .  S
C210       C1079   1.470   1_545  S
C210        C211   1.406       .  A
C211        C212   1.401       .  A
C211       F1154   1.358       .  S
C212        C213   1.405       .  A
C212       F2089   1.358       .  S
C213       C2058   1.467       .  S
C213        C214   1.404       .  A
C214        F215   1.359       .  S
F217       C2084   1.358       .  S
F218       C1147   1.358       .  S
C219        C220   1.404       .  A
C219        C224   1.396       .  A
C219        F226   1.359       .  S
C220        C221   1.403       .  A
C221        C222   1.402       .  A
C221        F228   1.358       .  S
C222        C223   1.409       .  A
C222       F2099   1.358       .  S
C223       C2037   1.478       .  S
C223        C224   1.407       .  A
C224        F225   1.358       .  S
F227       C2094   1.358       .  S
C229        C230   1.410       .  A
C229        C234   1.403       .  A
C229        F236   1.358       .  S
C230        C231   1.408       .  A
C231        C232   1.392       .  A
C231        F238   1.358       .  S
C232        C233   1.406       .  A
C232        F237   1.359       .  S
C233        C234   1.406       .  A
C234        F235   1.358       .  S
C239        C244   1.400       .  A
C239       C2112   1.404       .  A
C239        F246   1.358       .  S
C240        C241   1.405       .  A
C240       C2111   1.404       .  A
C241       C2114   1.393   1_455  A
C241        F248   1.359       .  S
C242        C243   1.408       .  A
C242       C2113   1.393       .  A
C242       F2119   1.358       .  S
C243        C244   1.409       .  A
C244        F245   1.358       .  S
F247       C2114   1.358       .  S
C249        C250   1.409       .  A
C249       C2126   1.386       .  A
C249        F256   1.359       .  S
C250        C251   1.410       .  A
C251        C252   1.406       .  A
C251        F258   1.358       .  S
C252       C2125   1.407       .  A
C252        F257   1.358       .  S
C253        C254   1.402       .  A
C253       C2124   1.407       .  A
C254       C2121   1.386   1_455  A
C254        F255   1.359       .  S
C259        C260   1.407       .  A
C259       C1200   1.405       .  A
C259        F266   1.358       .  S
C260        C261   1.405       .  A
C261       C1198   1.395       .  A
C261        F268   1.358       .  S
C262        C263   1.410       .  A
C262       C1197   1.395   1_545  A
C262        F267   1.358       .  S
C263        C264   1.411       .  A
C264       C1195   1.405   1_545  A
C264        F265   1.358       .  S
C269        C270   1.406       .  A
C269        C274   1.393       .  A
C269        F276   1.358       .  S
C270        C271   1.409       .  A
C271        C272   1.404       .  A
C271        F278   1.358       .  S
C272        C273   1.405       .  A
C272        F277   1.358       .  S
C273        C274   1.403       .  A
C274        F275   1.359       .  S
C279        C280   1.409       .  A
C279        C284   1.394       .  A
C279        F286   1.359       .  S
C280        C281   1.408       .  A
C281        C282   1.402       .  A
C281        F288   1.358       .  S
C282        C283   1.407       .  A
C282        F287   1.358       .  S
C283        C284   1.407       .  A
C284        F285   1.359       .  S
C289        C290   1.412       .  A
C289        C294   1.402   1_545  A
C289        F296   1.358       .  S
C290        C291   1.411       .  A
C291       C1228   1.397   1_545  A
C291       F1234   1.358       .  S
C292        C293   1.402       .  A
C292       C1227   1.396       .  A
C292        F297   1.358       .  S
C293       C1230   1.403       .  A
C294       C1229   1.403       .  A
C294        F295   1.358       .  S
F298       C1227   1.358       .  S
C299        C304   1.394       .  A
C299        C768   1.405       .  A
C299        F306   1.359   1_556  S
C300        C301   1.405       .  A
C300        C767   1.405       .  A
C301        C302   1.402       .  A
C301        F308   1.358       .  S
C302        C303   1.407       .  A
C302        F307   1.358       .  S
C303        C772   1.405       .  A
C304        C771   1.405       .  A
C304        F305   1.358   1_556  S
C309        C310   1.405       .  A
C309        C314   1.403       .  A
C309        F316   1.357       .  S
C310        C779   1.406       .  A
C311        C312   1.394       .  A
C311        C778   1.406       .  A
C311        F318   1.359   1_556  S
C312        C781   1.405       .  A
C312        F317   1.359   1_556  S
C313        C314   1.407       .  A
C313        C780   1.405       .  A
C314        F315   1.358       .  S
C319        C320   1.406       .  A
C319        C324   1.396       .  A
C319        F326   1.358       .  S
C320        C321   1.407       .  A
C321        C322   1.404       .  A
C321        F328   1.358       .  S
C322        C323   1.410       .  A
C322       F2199   1.358       .  S
C323        C324   1.409       .  A
C324        F325   1.358       .  S
F327       C2194   1.358   1_455  S
C329        C330   1.405       .  A
C329        C334   1.402       .  A
C329        F336   1.358       .  S
C330        C331   1.401       .  A
C331        C332   1.390       .  A
C331        F338   1.358       .  S
C332        C333   1.408       .  A
C332        F337   1.358       .  S
C333        C334   1.411       .  A
C334       F2207   1.358       .  S
F335       C2206   1.358   1_455  S
C339        C340   1.402       .  A
C339        C344   1.392       .  A
C339       F2218   1.359       .  S
C340        C341   1.405       .  A
C341        C342   1.403       .  A
C341        F348   1.358       .  S
C342        C343   1.412       .  A
C342        F347   1.358       .  S
C343        C344   1.413       .  A
C344        F345   1.358       .  S
F346       C2211   1.359       .  S
C349        C350   1.407       .  A
C349        C354   1.404       .  A
C349       F2228   1.358       .  S
C350        C351   1.406       .  A
C351        C352   1.395       .  A
C351        F358   1.358       .  S
C352        C353   1.408       .  A
C352        F357   1.358       .  S
C353        C354   1.410       .  A
C354        F355   1.358       .  S
F356       C2221   1.358       .  S
C359        C360   1.408       .  A
C359        C364   1.401       .  A
C359        F366   1.358   1_545  S
C360        C361   1.409       .  A
C361        C362   1.394       .  A
C361        F368   1.359       .  S
C362        C363   1.405       .  A
C362        F367   1.359       .  S
C363        C364   1.406       .  A
C364        F365   1.358       .  S
C369        C370   1.403       .  A
C369        C374   1.400       .  A
C369        F376   1.358       .  S
C370        C371   1.403       .  A
C371        C372   1.394       .  A
C371        F378   1.359       .  S
C372        C373   1.410       .  A
C372        F377   1.358       .  S
C373        C374   1.412       .  A
C374       F1311   1.358   1_545  S
F375       C1310   1.358       .  S
C379        C380   1.408       .  A
C379        C384   1.393       .  A
C379        F386   1.358       .  S
C380        C381   1.410       .  A
C381        C382   1.405       .  A
C381        F388   1.358       .  S
C382        C383   1.406       .  A
C382        F387   1.358       .  S
C383        C384   1.404       .  A
C384        F385   1.359       .  S
C389        C390   1.412       .  A
C389        C394   1.394       .  A
C389        F396   1.358       .  S
C390        C391   1.412       .  A
C391        C392   1.398       .  A
C391       F1334   1.358       .  S
C392        C393   1.403       .  A
C392       F1333   1.358       .  S
C393        C394   1.401       .  A
C394        F395   1.358       .  S
F397       C1328   1.358       .  S
F398       C1327   1.358       .  S
C399        C400   1.404       .  A
C399        C404   1.393       .  A
C399        F406   1.359       .  S
C400        C401   1.405       .  A
C401        C402   1.401       .  A
C401        F408   1.358       .  S
C402        C403   1.406       .  A
C402        F407   1.358       .  S
C403        C404   1.404       .  A
C404        F405   1.358       .  S
C409        C410   1.412       .  A
C409        C414   1.393       .  A
C409        F416   1.358       .  S
C410        C411   1.413       .  A
C411        C412   1.399       .  A
C411        F418   1.358       .  S
C412        C413   1.402       .  A
C412        F417   1.358       .  S
C413        C414   1.400       .  A
C414        F415   1.358       .  S
C419        C420   1.404       .  A
C419        C424   1.405       .  A
C419        F426   1.358       .  S
C420        C421   1.402       .  A
C421        C422   1.395       .  A
C421        F428   1.358       .  S
C422        C423   1.412       .  A
C422        F427   1.358       .  S
C423        C424   1.414       .  A
C424        F425   1.358       .  S
C429        C430   1.408       .  A
C429        C434   1.398       .  A
C429        F436   1.358       .  S
C430        C431   1.411       .  A
C431        C432   1.402       .  A
C431        F438   1.358       .  S
C432        C433   1.405       .  A
C432        F437   1.358       .  S
C433        C434   1.407       .  A
C434        F435   1.359       .  S
C439        C440   1.409       .  A
C439        C444   1.391       .  A
C439        F446   1.358       .  S
C440        C441   1.410       .  A
C441        C442   1.401       .  A
C441        F448   1.358       .  S
C442        C443   1.404       .  A
C442        F447   1.358       .  S
C443        C444   1.403       .  A
C444        F445   1.359       .  S
C449        C450   1.406       .  A
C449        C454   1.404       .  A
C449        F456   1.358       .  S
C450        C451   1.406       .  A
C451        C452   1.393       .  A
C451        F458   1.359       .  S
C452        C453   1.405       .  A
C452        F457   1.359       .  S
C453        C454   1.408       .  A
C454        F455   1.358       .  S
C459        C460   1.403       .  A
C459        C464   1.392       .  A
C459        F466   1.358       .  S
C460        C461   1.406       .  A
C461        C462   1.400       .  A
C461        F468   1.358       .  S
C462        C463   1.404       .  A
C462        F467   1.358       .  S
C463        C464   1.404       .  A
C464        F465   1.359       .  S
Fe469       O485   2.047       .  S
Fe469       O475   2.038       .  S
Fe469       O482   2.035       .  S
Fe469       O474   2.045       .  S
Fe469       O480   1.965       .  S
Fe470       O473   2.054       .  S
Fe470       O477   2.083       .  S
Fe470       O481   2.074       .  S
Fe470       O486   2.064       .  S
Fe470       O480   1.978       .  S
Fe471       O489   2.059       .  S
Fe471       O476   2.078       .  S
Fe471       O483   2.085       .  S
Fe471       O472   2.065       .  S
Fe471       O480   1.992       .  S
O472        C479   1.266       .  A
O473        C487   1.267       .  A
O474        C479   1.265       .  A
O475        C478   1.266       .  A
O476        C488   1.272       .  A
O477        C490   1.270       .  A
C478        O483   1.271       .  A
C478        C918   1.473       .  S
C479        C928   1.467       .  S
O481        C484   1.268       .  A
O482        C484   1.263       .  A
C484        C911   1.468       .  S
O485        C490   1.265       .  A
O486        C488   1.271       .  A
C487        O489   1.267       .  A
C487        C878   1.485       .  S
C488        C891   1.492       .  S
C490        C901   1.479       .  S
Fe491       O507   2.041       .  S
Fe491       O497   2.043       .  S
Fe491       O504   2.043       .  S
Fe491       O496   2.046       .  S
Fe491       O502   1.966       .  S
Fe492       O495   2.047   1_565  S
Fe492      O1435   2.083       .  S
Fe492       O503   2.066       .  S
Fe492       O508   2.061   1_565  S
Fe492      O1438   1.981       .  S
Fe493       O511   2.074       .  S
Fe493       O498   2.064       .  S
Fe493       O505   2.070       .  S
Fe493       O494   2.078       .  S
Fe493       O502   1.990       .  S
O494        C501   1.269       .  A
O495        C509   1.266       .  A
O496        C501   1.266       .  A
O497        C500   1.266       .  A
O498       C1446   1.270       .  A
O499      Fe1428   2.083       .  S
O499        C512   1.270       .  A
C500        O505   1.268       .  A
C500        C868   1.466       .  S
C501        C921   1.475       .  S
O502      Fe1428   1.981       .  S
O503       C1442   1.266       .  A
O504        C506   1.264       .  A
C506       O1439   1.266       .  A
C506        C861   1.466       .  S
O507        C512   1.264       .  A
O508        C510   1.270       .  A
C509       O1447   1.270   1_545  A
C509        C828   1.480       .  S
C510       O1434   1.270   1_545  A
C510        C841   1.484       .  S
O511       C1445   1.270       .  A
C512        C851   1.475       .  S
Fe513       O529   2.040       .  S
Fe513       O519   2.043       .  S
Fe513       O526   2.047       .  S
Fe513       O518   2.040       .  S
Fe513       O524   1.965       .  S
Fe514       O517   2.047       .  S
Fe514      O2393   2.083       .  S
Fe514      O2397   2.074       .  S
Fe514       O530   2.067       .  S
Fe514      O2396   1.976       .  S
Fe515       O533   2.067       .  S
Fe515       O520   2.071       .  S
Fe515       O527   2.070       .  S
Fe515       O516   2.074       .  S
Fe515       O524   1.990       .  S
O516        C523   1.268       .  A
O517        C531   1.267       .  A
O518        C523   1.264       .  A
O519        C522   1.266       .  A
O520       C2404   1.271   1_455  A
O521      Fe2386   2.084       .  S
O521        C534   1.269       .  A
C522        O527   1.268       .  A
C522        C931   1.464       .  S
C523        C871   1.468       .  S
O524      Fe2386   1.976       .  S
O525      Fe2386   2.074       .  S
O525        C528   1.269       .  A
O526        C528   1.267       .  A
C528        C808   1.473       .  S
O529        C534   1.262       .  A
O530        C532   1.270       .  A
C531       O2405   1.269       .  A
C531        C801   1.478       .  S
C532       O2392   1.271       .  A
C532        C791   1.486       .  S
O533       C2403   1.269       .  A
C534        C818   1.479       .  S
Fe535       O551   2.039       .  S
Fe535       O541   2.041       .  S
Fe535       O548   2.039       .  S
Fe535       O540   2.039       .  S
Fe535       O546   1.968       .  S
Fe536       O543   2.077       .  S
Fe536       O547   2.087       .  S
Fe536       O546   1.980       .  S
Fe537       O555   2.065       .  S
Fe537       O542   2.076       .  S
Fe537       O549   2.084       .  S
Fe537       O538   2.077       .  S
O538        C545   1.268       .  A
O539        C553   1.269       .  A
O542        C554   1.273       .  A
O543        C556   1.270       .  A
C544        O549   1.271       .  A
C544        C778   1.472       .  S
C545        C768   1.470       .  S
O547        C550   1.270       .  A
O548        C550   1.263       .  A
C550        C888   1.474       .  S
O551        C556   1.264       .  A
O552        C554   1.269       .  A
C553        O555   1.269       .  A
C553        C758   1.487       .  S
C554        C748   1.481       .  S
C556        C831   1.474       .  S
Fe557       O573   2.040       .  S
Fe557       O563   2.042       .  S
Fe557       O570   2.039       .  S
Fe557       O562   2.047       .  S
Fe557       O568   1.964       .  S
Fe558       O565   2.071       .  S
Fe558       O569   2.070       .  S
Fe558       O568   1.978       .  S
Fe559       O577   2.080       .  S
Fe559       O564   2.082       .  S
Fe559       O571   2.083       .  S
Fe559       O560   2.078       .  S
O560        C567   1.271       .  A
O561        C575   1.266       .  A
O564        C576   1.272       .  A
O565        C578   1.267       .  A
C566        O571   1.270       .  A
C566        C738   1.477       .  S
C567        C781   1.473       .  S
O569        C572   1.267       .  A
O570        C572   1.264       .  A
C572        C838   1.468       .  S
O573        C578   1.264       .  A
O574        C576   1.268       .  A
C575        O577   1.271       .  A
C575        C718   1.481       .  S
C576        C731   1.487       .  S
C578        C798   1.467       .  S
Fe579       O595   2.047       .  S
Fe579       O585   2.047       .  S
Fe579       O592   2.045       .  S
Fe579       O584   2.047       .  S
Fe579       O590   1.962       .  S
Fe580       O587   2.066       .  S
Fe580       O591   2.083       .  S
Fe580       O590   1.975       .  S
Fe581       O599   2.070       .  S
Fe581       O586   2.069       .  S
Fe581       O593   2.076       .  S
Fe581       O582   2.075       .  S
O582        C589   1.269       .  A
O583        C597   1.270       .  A
O586        C598   1.270       .  A
O587        C600   1.266       .  A
C588        O593   1.268       .  A
C588        C771   1.472       .  S
C589        C741   1.469       .  S
O591        C594   1.271       .  A
O592        C594   1.265       .  A
C594        C788   1.481       .  S
O595        C600   1.265       .  A
O596        C598   1.267       .  A
C597        O599   1.271       .  A
C597        C698   1.482       .  S
C598        C711   1.477       .  S
C600        C881   1.465       .  S
Fe601       O617   2.034       .  S
Fe601       O607   2.050       .  S
Fe601       O614   2.046       .  S
Fe601       O606   2.038       .  S
Fe601       O612   1.962       .  S
Fe602       O605   2.067       .  S
Fe602       O609   2.084       .  S
Fe602       O613   2.082       .  S
Fe602       O618   2.058       .  S
Fe602       O612   1.979       .  S
Fe603       O621   2.067       .  S
Fe603       O608   2.064       .  S
Fe603       O615   2.074       .  S
Fe603       O604   2.078       .  S
Fe603       O612   1.985       .  S
O604        C611   1.268       .  A
O605        C619   1.269       .  A
O606        C611   1.264       .  A
O607        C610   1.266       .  A
O608        C620   1.271       .  A
O609        C622   1.272       .  A
C610        O615   1.269       .  A
C610        C688   1.468       .  S
C611       C1614   1.470       .  S
O613        C616   1.269       .  A
O614        C616   1.264       .  A
C616        C728   1.479       .  S
O617        C622   1.264       .  A
O618        C620   1.270       .  A
C619        O621   1.269       .  A
C619        C898   1.485       .  S
C620        C858   1.484       .  S
C622        C701   1.475       .  S
Fe623       O639   2.046       .  S
Fe623       O629   2.043       .  S
Fe623       O636   2.041       .  S
Fe623       O628   2.049       .  S
Fe623       O634   1.958       .  S
Fe624       O627   2.052       .  S
Fe624       O631   2.079       .  S
Fe624       O635   2.070       .  S
Fe624       O640   2.057       .  S
Fe624       O634   1.967       .  S
Fe625       O643   2.081       .  S
Fe625       O630   2.076       .  S
Fe625       O637   2.074       .  S
Fe625       O626   2.086       .  S
Fe625       O634   1.982       .  S
O626        C633   1.272       .  A
O627        C641   1.267       .  A
O628        C633   1.267       .  A
O629        C632   1.266       .  A
O630        C642   1.272       .  A
O631        C644   1.270       .  A
C632        O637   1.269       .  A
C632       C1607   1.468       .  S
C633       C2563   1.478   1_455  S
O635        C638   1.267       .  A
O636        C638   1.263       .  A
C638        C708   1.471       .  S
O639        C644   1.266       .  A
O640        C642   1.269       .  A
C641        O643   1.272       .  A
C641        C848   1.482       .  S
C642        C811   1.488       .  S
C644        C761   1.471       .  S
Fe645       O661   2.032       .  S
Fe645       O651   2.038       .  S
Fe645       O658   2.040       .  S
Fe645       O650   2.039       .  S
Fe645       O656   1.965       .  S
Fe646       O649   2.060       .  S
Fe646       O653   2.079       .  S
Fe646       O657   2.080       .  S
Fe646       O662   2.052       .  S
Fe646       O656   1.982       .  S
Fe647       O665   2.074       .  S
Fe647       O652   2.063       .  S
Fe647       O659   2.073       .  S
Fe647       O648   2.080       .  S
Fe647       O656   1.989       .  S
O648        C655   1.269       .  A
O649        C663   1.270       .  A
O650        C655   1.265       .  A
O651        C654   1.264       .  A
O652        C664   1.269       .  A
O653        C666   1.268       .  A
C654        O659   1.268       .  A
C654       C2553   1.467   1_455  S
C655        C668   1.472       .  S
O657        C660   1.270       .  A
O658        C660   1.264       .  A
C660        C751   1.478       .  S
O661        C666   1.263       .  A
O662        C664   1.267       .  A
C663        O665   1.272       .  A
C663        C821   1.484       .  S
C664        C908   1.479       .  S
C666        C721   1.473       .  S
C667        C668   1.406       .  A
C667        C672   1.391       .  A
C667        F674   1.359       .  S
C668        C669   1.407       .  A
C669        C670   1.404       .  A
C669        F676   1.357       .  S
C670        C671   1.405       .  A
C670       F1611   1.358       .  S
C671       C1568   1.467   1_545  S
C671        C672   1.404       .  A
C672        F673   1.359       .  S
F675       C1606   1.357       .  S
C677        C678   1.405       .  A
C677        C682   1.393       .  A
C677        F684   1.359       .  S
C678       C1547   1.470   1_545  S
C678        C679   1.406       .  A
C679        C680   1.401       .  A
C679       F1622   1.358       .  S
C680        C681   1.405       .  A
C680       F2557   1.358       .  S
C681       C2526   1.467       .  S
C681        C682   1.404       .  A
C682        F683   1.359       .  S
F685       C2552   1.358       .  S
F686       C1615   1.358       .  S
C687        C688   1.404       .  A
C687        C692   1.396       .  A
C687        F694   1.359       .  S
C688        C689   1.403       .  A
C689        C690   1.402       .  A
C689        F696   1.358       .  S
C690        C691   1.409       .  A
C690       F2567   1.358       .  S
C691       C2505   1.478       .  S
C691        C692   1.407       .  A
C692        F693   1.358       .  S
F695       C2562   1.358       .  S
C697        C698   1.410       .  A
C697        C702   1.403       .  A
C697        F704   1.358       .  S
C698        C699   1.408       .  A
C699        C700   1.392       .  A
C699        F706   1.358       .  S
C700        C701   1.406       .  A
C700        F705   1.359       .  S
C701        C702   1.406       .  A
C702        F703   1.358       .  S
C707       C2580   1.404       .  A
C707        C712   1.400       .  A
C707        F714   1.358       .  S
C708       C2579   1.404       .  A
C708        C709   1.405       .  A
C709       C2582   1.393   1_455  A
C709        F716   1.359       .  S
C710       C2581   1.393       .  A
C710        C711   1.408       .  A
C710       F2587   1.358       .  S
C711        C712   1.409       .  A
C712        F713   1.358       .  S
F715       C2582   1.358       .  S
C717        C718   1.409       .  A
C717       C2594   1.386       .  A
C717        F724   1.359       .  S
C718        C719   1.410       .  A
C719        C720   1.406       .  A
C719        F726   1.358       .  S
C720       C2593   1.407       .  A
C720        F725   1.358       .  S
C721       C2592   1.407       .  A
C721        C722   1.402       .  A
C722       C2589   1.386   1_455  A
C722        F723   1.359       .  S
C727        C728   1.407       .  A
C727       C1668   1.405       .  A
C727        F734   1.358       .  S
C728        C729   1.405       .  A
C729       C1666   1.395       .  A
C729        F736   1.358       .  S
C730       C1665   1.395   1_545  A
C730        C731   1.410       .  A
C730        F735   1.358       .  S
C731        C732   1.411       .  A
C732       C1663   1.405   1_545  A
C732        F733   1.358       .  S
C737        C738   1.406       .  A
C737        C742   1.393       .  A
C737        F744   1.358   1_556  S
C738        C739   1.409       .  A
C739        C740   1.404       .  A
C739        F746   1.358       .  S
C740        C741   1.405       .  A
C740        F745   1.358       .  S
C741        C742   1.403       .  A
C742        F743   1.359   1_556  S
C747        C748   1.409       .  A
C747        C752   1.394       .  A
C747        F754   1.359       .  S
C748        C749   1.408       .  A
C749        C750   1.402       .  A
C749        F756   1.358       .  S
C750        C751   1.407       .  A
C750        F755   1.358       .  S
C751        C752   1.407       .  A
C752        F753   1.359       .  S
C757        C758   1.412       .  A
C757        C762   1.402   1_545  A
C757        F764   1.358       .  S
C758        C759   1.411       .  A
C759       C1696   1.397   1_545  A
C759       F1702   1.358       .  S
C760       C1695   1.396       .  A
C760        C761   1.402       .  A
C760        F765   1.358       .  S
C761       C1698   1.403       .  A
C762       C1697   1.403       .  A
C762        F763   1.358       .  S
F766       C1695   1.358       .  S
C767        C772   1.394       .  A
C767        F774   1.359       .  S
C768        C769   1.405       .  A
C769        C770   1.402       .  A
C769        F776   1.358       .  S
C770        C771   1.407       .  A
C770        F775   1.358       .  S
C772        F773   1.358       .  S
C777        C778   1.405       .  A
C777        C782   1.403       .  A
C777        F784   1.357       .  S
C779        C780   1.394       .  A
C779        F786   1.359       .  S
C780        F785   1.359       .  S
C781        C782   1.407       .  A
C782        F783   1.358       .  S
C787        C788   1.406       .  A
C787        C792   1.396       .  A
C787        F794   1.358       .  S
C788        C789   1.407       .  A
C789        C790   1.404       .  A
C789        F796   1.358       .  S
C790        C791   1.410       .  A
C790       F2667   1.358       .  S
C791        C792   1.409       .  A
C792        F793   1.358       .  S
F795       C2662   1.358   1_455  S
C797        C798   1.405       .  A
C797        C802   1.402       .  A
C797        F804   1.358       .  S
C798        C799   1.402       .  A
C799        C800   1.390       .  A
C799        F806   1.358       .  S
C800        C801   1.408       .  A
C800        F805   1.358       .  S
C801        C802   1.411       .  A
C802       F2675   1.358       .  S
F803       C2674   1.358   1_455  S
C807        C808   1.402       .  A
C807        C812   1.392       .  A
C807       F2686   1.359       .  S
C808        C809   1.405       .  A
C809        C810   1.403       .  A
C809        F816   1.358       .  S
C810        C811   1.412       .  A
C810        F815   1.358       .  S
C811        C812   1.413       .  A
C812        F813   1.358       .  S
F814       C2679   1.359       .  S
C817        C818   1.407       .  A
C817        C822   1.404       .  A
C817       F2696   1.358       .  S
C818        C819   1.406       .  A
C819        C820   1.395       .  A
C819        F826   1.358       .  S
C820        C821   1.408       .  A
C820        F825   1.358       .  S
C821        C822   1.410       .  A
C822        F823   1.358       .  S
F824       C2689   1.358       .  S
C827        C828   1.408       .  A
C827        C832   1.401       .  A
C827        F834   1.358   1_545  S
C828        C829   1.409       .  A
C829        C830   1.394       .  A
C829        F836   1.359       .  S
C830        C831   1.405       .  A
C830        F835   1.359       .  S
C831        C832   1.406       .  A
C832        F833   1.358       .  S
C837        C838   1.403       .  A
C837        C842   1.400       .  A
C837        F844   1.358       .  S
C838        C839   1.403       .  A
C839        C840   1.394       .  A
C839        F846   1.359       .  S
C840        C841   1.410       .  A
C840        F845   1.358       .  S
C841        C842   1.412       .  A
C842       F1779   1.358   1_545  S
F843       C1778   1.358       .  S
C847        C848   1.408       .  A
C847        C852   1.393       .  A
C847        F854   1.358       .  S
C848        C849   1.410       .  A
C849        C850   1.405       .  A
C849        F856   1.358       .  S
C850        C851   1.406       .  A
C850        F855   1.358       .  S
C851        C852   1.404       .  A
C852        F853   1.359       .  S
C857        C858   1.412       .  A
C857        C862   1.394       .  A
C857        F864   1.358       .  S
C858        C859   1.412       .  A
C859        C860   1.398       .  A
C859       F1802   1.358       .  S
C860        C861   1.403       .  A
C860       F1801   1.358       .  S
C861        C862   1.401       .  A
C862        F863   1.358       .  S
F865       C1796   1.358       .  S
F866       C1795   1.358       .  S
C867        C868   1.404       .  A
C867        C872   1.393       .  A
C867        F874   1.359       .  S
C868        C869   1.405       .  A
C869        C870   1.401       .  A
C869        F876   1.358       .  S
C870        C871   1.406       .  A
C870        F875   1.358       .  S
C871        C872   1.404       .  A
C872        F873   1.358       .  S
C877        C878   1.412       .  A
C877        C882   1.393       .  A
C877        F884   1.358       .  S
C878        C879   1.413       .  A
C879        C880   1.399       .  A
C879        F886   1.358       .  S
C880        C881   1.402       .  A
C880        F885   1.358       .  S
C881        C882   1.400       .  A
C882        F883   1.358       .  S
C887        C888   1.404       .  A
C887        C892   1.405       .  A
C887        F894   1.358       .  S
C888        C889   1.402       .  A
C889        C890   1.395       .  A
C889        F896   1.358       .  S
C890        C891   1.412       .  A
C890        F895   1.358       .  S
C891        C892   1.414       .  A
C892        F893   1.358       .  S
C897        C898   1.408       .  A
C897        C902   1.398       .  A
C897        F904   1.358       .  S
C898        C899   1.411       .  A
C899        C900   1.402       .  A
C899        F906   1.358       .  S
C900        C901   1.405       .  A
C900        F905   1.358       .  S
C901        C902   1.407       .  A
C902        F903   1.359       .  S
C907        C908   1.409       .  A
C907        C912   1.391       .  A
C907        F914   1.358       .  S
C908        C909   1.410       .  A
C909        C910   1.401       .  A
C909        F916   1.358       .  S
C910        C911   1.404       .  A
C910        F915   1.358       .  S
C911        C912   1.403       .  A
C912        F913   1.359       .  S
C917        C918   1.406       .  A
C917        C922   1.404       .  A
C917        F924   1.358       .  S
C918        C919   1.406       .  A
C919        C920   1.393       .  A
C919        F926   1.359       .  S
C920        C921   1.405       .  A
C920        F925   1.359       .  S
C921        C922   1.408       .  A
C922        F923   1.358       .  S
C927        C928   1.403       .  A
C927        C932   1.392       .  A
C927        F934   1.358       .  S
C928        C929   1.406       .  A
C929        C930   1.400       .  A
C929        F936   1.358       .  S
C930        C931   1.404       .  A
C930        F935   1.358       .  S
C931        C932   1.404       .  A
C932        F933   1.359       .  S
Fe937       O953   2.047       .  S
Fe937       O943   2.038       .  S
Fe937       O950   2.034       .  S
Fe937       O942   2.045       .  S
Fe937       O948   1.965       .  S
Fe938       O941   2.055       .  S
Fe938       O945   2.083       .  S
Fe938       O949   2.075       .  S
Fe938       O954   2.064       .  S
Fe938       O948   1.978       .  S
Fe939       O957   2.058       .  S
Fe939       O944   2.078       .  S
Fe939       O951   2.086       .  S
Fe939       O940   2.064       .  S
Fe939       O948   1.992       .  S
O940        C947   1.265       .  A
O941        C955   1.267       .  A
O942        C947   1.265       .  A
O943        C946   1.265       .  A
O944        C956   1.272       .  A
O945        C958   1.270       .  A
C946        O951   1.271       .  A
C946       C1386   1.474       .  S
C947       C1396   1.466       .  S
O949        C952   1.268       .  A
O950        C952   1.263       .  A
C952       C1379   1.468       .  S
O953        C958   1.265       .  A
O954        C956   1.271       .  A
C955        O957   1.267       .  A
C955       C1346   1.486       .  S
C956       C1359   1.492       .  S
C958       C1369   1.480       .  S
Fe959       O975   2.041       .  S
Fe959       O965   2.043       .  S
Fe959       O972   2.042       .  S
Fe959       O964   2.046       .  S
Fe959       O970   1.966       .  S
Fe960       O963   2.047       .  S
Fe960       O971   2.065       .  S
Fe960       O976   2.062       .  S
Fe961       O979   2.074       .  S
Fe961       O966   2.064       .  S
Fe961       O973   2.071       .  S
Fe961       O962   2.078       .  S
Fe961       O970   1.990       .  S
O962        C969   1.269       .  A
O963        C977   1.266       .  A
O964        C969   1.266       .  A
O965        C968   1.266       .  A
O967        C980   1.270       .  A
C968        O973   1.268       .  A
C968       C1336   1.466       .  S
C969       C1389   1.475       .  S
O972        C974   1.264       .  A
C974       C1329   1.466       .  S
O975        C980   1.264       .  A
O976        C978   1.270       .  A
C977       C1296   1.480       .  S
C978       C1309   1.484       .  S
C980       C1319   1.474       .  S
Fe981       O997   2.040       .  S
Fe981       O987   2.043       .  S
Fe981       O994   2.047       .  S
Fe981       O986   2.040       .  S
Fe981       O992   1.965       .  S
Fe982       O985   2.047       .  S
Fe982      O2861   2.084       .  S
Fe982      O2865   2.074       .  S
Fe982       O998   2.067       .  S
Fe982      O2864   1.976       .  S
Fe983      O1001   2.068       .  S
Fe983       O988   2.071       .  S
Fe983       O995   2.070       .  S
Fe983       O984   2.075       .  S
Fe983       O992   1.990       .  S
O984        C991   1.268       .  A
O985        C999   1.267       .  A
O986        C991   1.264       .  A
O987        C990   1.266       .  A
O988       C2872   1.271   1_455  A
O989      Fe2854   2.084       .  S
O989       C1002   1.269       .  A
C990        O995   1.268       .  A
C990       C1399   1.464       .  S
C991       C1339   1.468       .  S
O992      Fe2854   1.976       .  S
O993      Fe2854   2.074       .  S
O993        C996   1.269       .  A
O994        C996   1.267       .  A
C996       C1276   1.473       .  S
O997       C1002   1.262       .  A
O998       C1000   1.270       .  A
C999       O2873   1.269       .  A
C999       C1269   1.478       .  S
C1000      O2860   1.271       .  A
C1000      C1259   1.486       .  S
O1001      C2871   1.270       .  A
C1002      C1286   1.479       .  S
Fe1003     O1019   2.039       .  S
Fe1003     O1009   2.041       .  S
Fe1003     O1016   2.039       .  S
Fe1003     O1008   2.039       .  S
Fe1003     O1014   1.968       .  S
Fe1004     O1475   2.065   1_554  S
Fe1004     O1011   2.077       .  S
Fe1004     O1015   2.087       .  S
Fe1004     O1488   2.055   1_554  S
Fe1004     O1014   1.980       .  S
Fe1005     O1023   2.065       .  S
Fe1005     O1010   2.076       .  S
Fe1005     O1017   2.084       .  S
Fe1005     O1006   2.077       .  S
Fe1005     O1482   1.989       .  S
O1006      C1013   1.268       .  A
O1007     Fe1472   2.065       .  S
O1007      C1021   1.269       .  A
O1008      C1481   1.264   1_554  A
O1009      C1480   1.265   1_554  A
O1010      C1022   1.273       .  A
O1011      C1024   1.269       .  A
C1012      O1477   1.265       .  A
C1012      O1017   1.271       .  A
C1012      C1246   1.473       .  S
C1013      O1476   1.264       .  A
C1013      C1236   1.470       .  S
O1014     Fe1473   1.989   1_554  S
O1015      C1018   1.270       .  A
O1016      C1018   1.263       .  A
C1018      C1356   1.474       .  S
O1019      C1024   1.264       .  A
O1020     Fe1472   2.055       .  S
O1020      C1022   1.269       .  A
C1021      O1023   1.269       .  A
C1021      C1226   1.486       .  S
C1022      C1216   1.481       .  S
C1024      C1299   1.474       .  S
Fe1025     O1041   2.040       .  S
Fe1025     O1031   2.042       .  S
Fe1025     O1038   2.039       .  S
Fe1025     O1030   2.048       .  S
Fe1025     O1036   1.964       .  S
Fe1026     O1497   2.040   1_554  S
Fe1026     O1033   2.071       .  S
Fe1026     O1037   2.071       .  S
Fe1026     O1510   2.055   1_554  S
Fe1026     O1036   1.978       .  S
Fe1027     O1045   2.080       .  S
Fe1027     O1032   2.081       .  S
Fe1027     O1039   2.082       .  S
Fe1027     O1028   2.077       .  S
Fe1027     O1504   1.990       .  S
O1028      C1035   1.271       .  A
O1029     Fe1494   2.040       .  S
O1029      C1043   1.266       .  A
O1030      C1503   1.267   1_554  A
O1031      C1502   1.265   1_554  A
O1032      C1044   1.272       .  A
O1033      C1046   1.267       .  A
C1034      O1499   1.265       .  A
C1034      O1039   1.270       .  A
C1034      C1206   1.477       .  S
C1035      O1498   1.267       .  A
C1035      C1249   1.474       .  S
O1036     Fe1495   1.990   1_554  S
O1037      C1040   1.267       .  A
O1038      C1040   1.264       .  A
C1040      C1306   1.468       .  S
O1041      C1046   1.264       .  A
O1042     Fe1494   2.055       .  S
O1042      C1044   1.268       .  A
C1043      O1045   1.271       .  A
C1043      C1186   1.481       .  S
C1044      C1199   1.487       .  S
C1046      C1266   1.467       .  S
Fe1047     O1063   2.047       .  S
Fe1047     O1053   2.047       .  S
Fe1047     O1060   2.045       .  S
Fe1047     O1052   2.047       .  S
Fe1047     O1058   1.962       .  S
Fe1048     O1519   2.061   1_554  S
Fe1048     O1055   2.066       .  S
Fe1048     O1059   2.083       .  S
Fe1048     O1532   2.049   1_554  S
Fe1048     O1058   1.975       .  S
Fe1049     O1067   2.070       .  S
Fe1049     O1054   2.070       .  S
Fe1049     O1061   2.077       .  S
Fe1049     O1050   2.075       .  S
Fe1049     O1526   1.985       .  S
O1050      C1057   1.269       .  A
O1051     Fe1516   2.061       .  S
O1051      C1065   1.270       .  A
O1052      C1525   1.267   1_554  A
O1053      C1524   1.266   1_554  A
O1054      C1066   1.270       .  A
O1055      C1068   1.266       .  A
C1056      O1521   1.266       .  A
C1056      O1061   1.269       .  A
C1056      C1239   1.472       .  S
C1057      O1520   1.267       .  A
C1057      C1209   1.468       .  S
O1058     Fe1517   1.985   1_554  S
O1059      C1062   1.271       .  A
O1060      C1062   1.265       .  A
C1062      C1256   1.481       .  S
O1063      C1068   1.265       .  A
O1064     Fe1516   2.049       .  S
O1064      C1066   1.267       .  A
C1065      O1067   1.271       .  A
C1065      C1166   1.483       .  S
C1066      C1179   1.478       .  S
C1068      C1349   1.465       .  S
Fe1069     O1085   2.034       .  S
Fe1069     O1075   2.050       .  S
Fe1069     O1082   2.047       .  S
Fe1069     O1074   2.038       .  S
Fe1069     O1080   1.962       .  S
Fe1070     O1073   2.067       .  S
Fe1070     O1077   2.084       .  S
Fe1070     O1081   2.082       .  S
Fe1070     O1086   2.058       .  S
Fe1070     O1080   1.979       .  S
Fe1071     O1089   2.067       .  S
Fe1071     O1076   2.064       .  S
Fe1071     O1083   2.073       .  S
Fe1071     O1072   2.078       .  S
Fe1071     O1080   1.985       .  S
O1072      C1079   1.268       .  A
O1073      C1087   1.269       .  A
O1074      C1079   1.264       .  A
O1075      C1078   1.266       .  A
O1076      C1088   1.271       .  A
O1077      C1090   1.272       .  A
C1078      O1083   1.269       .  A
C1078      C1156   1.468       .  S
O1081      C1084   1.269       .  A
O1082      C1084   1.264       .  A
C1084      C1196   1.480       .  S
O1085      C1090   1.264       .  A
O1086      C1088   1.270       .  A
C1087      O1089   1.269       .  A
C1087      C1366   1.485       .  S
C1088      C1326   1.484       .  S
C1090      C1169   1.475       .  S
Fe1091     O1107   2.047       .  S
Fe1091     O1097   2.043       .  S
Fe1091     O1104   2.041       .  S
Fe1091     O1096   2.049       .  S
Fe1091     O1102   1.958       .  S
Fe1092     O1095   2.051       .  S
Fe1092     O1099   2.080       .  S
Fe1092     O1103   2.071       .  S
Fe1092     O1108   2.058       .  S
Fe1092     O1102   1.967       .  S
Fe1093     O1111   2.081       .  S
Fe1093     O1098   2.075       .  S
Fe1093     O1105   2.073       .  S
Fe1093     O1094   2.086       .  S
Fe1093     O1102   1.982       .  S
O1094      C1101   1.272       .  A
O1095      C1109   1.267       .  A
O1096      C1101   1.267       .  A
O1097      C1100   1.266       .  A
O1098      C1110   1.272       .  A
O1099      C1112   1.270       .  A
C1100      O1105   1.269       .  A
C1101      C3031   1.478   1_455  S
O1103      C1106   1.267       .  A
O1104      C1106   1.263       .  A
C1106      C1176   1.471       .  S
O1107      C1112   1.266       .  A
O1108      C1110   1.270       .  A
C1109      O1111   1.272       .  A
C1109      C1316   1.482       .  S
C1110      C1279   1.488       .  S
C1112      C1229   1.471       .  S
Fe1113     O1129   2.031       .  S
Fe1113     O1119   2.038       .  S
Fe1113     O1126   2.040       .  S
Fe1113     O1118   2.039       .  S
Fe1113     O1124   1.965       .  S
Fe1114     O1117   2.060       .  S
Fe1114     O1121   2.079       .  S
Fe1114     O1125   2.081       .  S
Fe1114     O1130   2.052       .  S
Fe1114     O1124   1.982       .  S
Fe1115     O1133   2.074       .  S
Fe1115     O1120   2.063       .  S
Fe1115     O1127   2.073       .  S
Fe1115     O1116   2.081       .  S
Fe1115     O1124   1.989       .  S
O1116      C1123   1.270       .  A
O1117      C1131   1.270       .  A
O1118      C1123   1.265       .  A
O1119      C1122   1.264       .  A
O1120      C1132   1.269       .  A
O1121      C1134   1.268       .  A
C1122      O1127   1.268       .  A
C1122      C3021   1.467   1_455  S
C1123      C1136   1.473       .  S
O1125      C1128   1.270       .  A
O1126      C1128   1.264       .  A
C1128      C1219   1.478       .  S
O1129      C1134   1.263       .  A
O1130      C1132   1.268       .  A
C1131      O1133   1.272       .  A
C1131      C1289   1.484       .  S
C1132      C1376   1.479       .  S
C1134      C1189   1.473       .  S
C1135      C1136   1.406       .  A
C1135      C1140   1.392       .  A
C1135      F1142   1.359       .  S
C1136      C1137   1.407       .  A
C1137      C1138   1.404       .  A
C1137      F1144   1.357       .  S
C1138      C1139   1.405       .  A
C1139      C1140   1.404       .  A
C1140      F1141   1.359       .  S
C1145      C1146   1.405       .  A
C1145      C1150   1.393       .  A
C1145      F1152   1.359       .  S
C1146      C1147   1.406       .  A
C1147      C1148   1.401       .  A
C1148      C1149   1.405       .  A
C1148      F3025   1.358       .  S
C1149      C2994   1.467       .  S
C1149      C1150   1.404       .  A
C1150      F1151   1.359       .  S
F1153      C3020   1.358       .  S
C1155      C1156   1.404       .  A
C1155      C1160   1.396       .  A
C1155      F1162   1.359       .  S
C1156      C1157   1.403       .  A
C1157      C1158   1.402       .  A
C1157      F1164   1.358       .  S
C1158      C1159   1.409       .  A
C1158      F3035   1.358       .  S
C1159      C2973   1.478       .  S
C1159      C1160   1.407       .  A
C1160      F1161   1.358       .  S
F1163      C3030   1.358       .  S
C1165      C1166   1.410       .  A
C1165      C1170   1.403       .  A
C1165      F1172   1.358       .  S
C1166      C1167   1.409       .  A
C1167      C1168   1.393       .  A
C1167      F1174   1.358       .  S
C1168      C1169   1.405       .  A
C1168      F1173   1.359       .  S
C1169      C1170   1.406       .  A
C1170      F1171   1.358       .  S
C1175      C3048   1.405       .  A
C1175      C1180   1.400       .  A
C1175      F1182   1.358       .  S
C1176      C3047   1.405       .  A
C1176      C1177   1.405       .  A
C1177      C3050   1.393   1_455  A
C1177      F1184   1.359       .  S
C1178      C3049   1.393       .  A
C1178      C1179   1.408       .  A
C1178      F3055   1.358       .  S
C1179      C1180   1.409       .  A
C1180      F1181   1.358       .  S
F1183      C3050   1.358       .  S
C1185      C1186   1.409       .  A
C1185      C3062   1.386       .  A
C1185      F1192   1.359       .  S
C1186      C1187   1.410       .  A
C1187      C1188   1.406       .  A
C1187      F1194   1.358       .  S
C1188      C3061   1.407       .  A
C1188      F1193   1.358       .  S
C1189      C3060   1.407       .  A
C1189      C1190   1.402       .  A
C1190      C3057   1.386   1_455  A
C1190      F1191   1.359       .  S
C1195      C1196   1.407       .  A
C1195      F1202   1.358       .  S
C1196      C1197   1.405       .  A
C1197      F1204   1.358       .  S
C1198      C1199   1.410       .  A
C1198      F1203   1.358       .  S
C1199      C1200   1.411       .  A
C1200      F1201   1.358       .  S
C1205      C1206   1.406       .  A
C1205      C1210   1.393       .  A
C1205      F1212   1.358       .  S
C1206      C1207   1.409       .  A
C1207      C1208   1.404       .  A
C1207      F1214   1.358       .  S
C1208      C1209   1.405       .  A
C1208      F1213   1.358       .  S
C1209      C1210   1.403       .  A
C1210      F1211   1.359       .  S
C1215      C1216   1.409       .  A
C1215      C1220   1.394       .  A
C1215      F1222   1.359       .  S
C1216      C1217   1.408       .  A
C1217      C1218   1.402       .  A
C1217      F1224   1.358       .  S
C1218      C1219   1.407       .  A
C1218      F1223   1.358       .  S
C1219      C1220   1.407       .  A
C1220      F1221   1.359       .  S
C1225      C1226   1.412       .  A
C1225      C1230   1.401       .  A
C1225      F1232   1.358       .  S
C1226      C1227   1.411       .  A
C1228      C1229   1.402       .  A
C1228      F1233   1.358       .  S
C1230      F1231   1.358       .  S
C1235      C1704   1.405       .  A
C1235      C1240   1.394       .  A
C1235      F1242   1.359   1_556  S
C1236      C1703   1.405       .  A
C1236      C1237   1.405       .  A
C1237      C1238   1.402       .  A
C1237      F1244   1.358       .  S
C1238      C1239   1.407       .  A
C1238      F1243   1.358       .  S
C1239      C1708   1.405       .  A
C1240      C1707   1.405       .  A
C1240      F1241   1.358   1_556  S
C1245      C1246   1.405       .  A
C1245      C1250   1.403       .  A
C1245      F1252   1.357       .  S
C1246      C1715   1.406       .  A
C1247      C1714   1.406       .  A
C1247      C1248   1.394       .  A
C1247      F1254   1.359   1_556  S
C1248      C1717   1.405       .  A
C1248      F1253   1.359   1_556  S
C1249      C1716   1.405       .  A
C1249      C1250   1.407       .  A
C1250      F1251   1.358       .  S
C1255      C1256   1.406       .  A
C1255      C1260   1.396       .  A
C1255      F1262   1.358       .  S
C1256      C1257   1.407       .  A
C1257      C1258   1.403       .  A
C1257      F1264   1.358       .  S
C1258      C1259   1.410       .  A
C1258      F3135   1.358       .  S
C1259      C1260   1.409       .  A
C1260      F1261   1.358       .  S
F1263      C3130   1.358   1_455  S
C1265      C1266   1.405       .  A
C1265      C1270   1.402       .  A
C1265      F1272   1.358       .  S
C1266      C1267   1.402       .  A
C1267      C1268   1.390       .  A
C1267      F1274   1.358       .  S
C1268      C1269   1.408       .  A
C1268      F1273   1.358       .  S
C1269      C1270   1.411       .  A
C1270      F3143   1.358       .  S
F1271      C3142   1.358   1_455  S
C1275      C1276   1.402       .  A
C1275      C1280   1.392       .  A
C1275      F3154   1.359       .  S
C1276      C1277   1.405       .  A
C1277      C1278   1.403       .  A
C1277      F1284   1.358       .  S
C1278      C1279   1.412       .  A
C1278      F1283   1.358       .  S
C1279      C1280   1.413       .  A
C1280      F1281   1.358       .  S
F1282      C3147   1.359       .  S
C1285      C1286   1.407       .  A
C1285      C1290   1.404       .  A
C1285      F3164   1.358       .  S
C1286      C1287   1.406       .  A
C1287      C1288   1.396       .  A
C1287      F1294   1.358       .  S
C1288      C1289   1.409       .  A
C1288      F1293   1.358       .  S
C1289      C1290   1.410       .  A
C1290      F1291   1.358       .  S
F1292      C3157   1.358       .  S
C1295      C1296   1.408       .  A
C1295      C1300   1.401       .  A
C1295      F1302   1.358       .  S
C1296      C1297   1.409       .  A
C1297      C1298   1.394       .  A
C1297      F1304   1.359       .  S
C1298      C1299   1.405       .  A
C1298      F1303   1.359       .  S
C1299      C1300   1.406       .  A
C1300      F1301   1.358       .  S
C1305      C1306   1.403       .  A
C1305      C1310   1.400       .  A
C1305      F1312   1.358       .  S
C1306      C1307   1.403       .  A
C1307      C1308   1.394       .  A
C1307      F1314   1.359       .  S
C1308      C1309   1.410       .  A
C1308      F1313   1.358       .  S
C1309      C1310   1.412       .  A
C1315      C1316   1.408       .  A
C1315      C1320   1.393       .  A
C1315      F1322   1.358       .  S
C1316      C1317   1.410       .  A
C1317      C1318   1.405       .  A
C1317      F1324   1.358       .  S
C1318      C1319   1.406       .  A
C1318      F1323   1.358       .  S
C1319      C1320   1.404       .  A
C1320      F1321   1.359       .  S
C1325      C1326   1.412       .  A
C1325      C1330   1.394       .  A
C1325      F1332   1.358       .  S
C1326      C1327   1.412       .  A
C1327      C1328   1.398       .  A
C1328      C1329   1.403       .  A
C1329      C1330   1.401       .  A
C1330      F1331   1.358       .  S
C1335      C1336   1.404       .  A
C1335      C1340   1.393       .  A
C1335      F1342   1.359       .  S
C1336      C1337   1.405       .  A
C1337      C1338   1.401       .  A
C1337      F1344   1.358       .  S
C1338      C1339   1.406       .  A
C1338      F1343   1.358       .  S
C1339      C1340   1.404       .  A
C1340      F1341   1.358       .  S
C1345      C1346   1.412       .  A
C1345      C1350   1.393       .  A
C1345      F1352   1.358       .  S
C1346      C1347   1.414       .  A
C1347      C1348   1.399       .  A
C1347      F1354   1.358       .  S
C1348      C1349   1.402       .  A
C1348      F1353   1.358       .  S
C1349      C1350   1.400       .  A
C1350      F1351   1.358       .  S
C1355      C1356   1.404       .  A
C1355      C1360   1.405       .  A
C1355      F1362   1.358       .  S
C1356      C1357   1.402       .  A
C1357      C1358   1.395       .  A
C1357      F1364   1.358       .  S
C1358      C1359   1.412       .  A
C1358      F1363   1.358       .  S
C1359      C1360   1.414       .  A
C1360      F1361   1.358       .  S
C1365      C1366   1.408       .  A
C1365      C1370   1.398       .  A
C1365      F1372   1.358       .  S
C1366      C1367   1.410       .  A
C1367      C1368   1.403       .  A
C1367      F1374   1.358       .  S
C1368      C1369   1.405       .  A
C1368      F1373   1.358       .  S
C1369      C1370   1.407       .  A
C1370      F1371   1.359       .  S
C1375      C1376   1.409       .  A
C1375      C1380   1.391       .  A
C1375      F1382   1.358       .  S
C1376      C1377   1.410       .  A
C1377      C1378   1.401       .  A
C1377      F1384   1.358       .  S
C1378      C1379   1.404       .  A
C1378      F1383   1.358       .  S
C1379      C1380   1.403       .  A
C1380      F1381   1.359       .  S
C1385      C1386   1.406       .  A
C1385      C1390   1.404       .  A
C1385      F1392   1.358       .  S
C1386      C1387   1.406       .  A
C1387      C1388   1.393       .  A
C1387      F1394   1.359       .  S
C1388      C1389   1.405       .  A
C1388      F1393   1.359       .  S
C1389      C1390   1.408       .  A
C1390      F1391   1.358       .  S
C1395      C1396   1.403       .  A
C1395      C1400   1.392       .  A
C1395      F1402   1.358       .  S
C1396      C1397   1.406       .  A
C1397      C1398   1.400       .  A
C1397      F1404   1.358       .  S
C1398      C1399   1.404       .  A
C1398      F1403   1.358       .  S
C1399      C1400   1.404       .  A
C1400      F1401   1.359       .  S
Fe1405     O1421   2.047       .  S
Fe1405     O1411   2.038       .  S
Fe1405     O1418   2.034       .  S
Fe1405     O1410   2.045       .  S
Fe1405     O1416   1.965       .  S
Fe1406     O1409   2.055       .  S
Fe1406     O1413   2.083       .  S
Fe1406     O1417   2.075       .  S
Fe1406     O1422   2.064       .  S
Fe1406     O1416   1.978       .  S
Fe1407     O1425   2.058       .  S
Fe1407     O1412   2.078       .  S
Fe1407     O1419   2.086       .  S
Fe1407     O1408   2.064       .  S
Fe1407     O1416   1.992       .  S
O1408      C1415   1.265       .  A
O1409      C1423   1.267       .  A
O1410      C1415   1.265       .  A
O1411      C1414   1.265       .  A
O1412      C1424   1.272       .  A
O1413      C1426   1.270       .  A
C1414      O1419   1.271       .  A
C1414      C1854   1.474       .  S
C1415      C1864   1.466       .  S
O1417      C1420   1.268       .  A
O1418      C1420   1.263       .  A
C1420      C1847   1.468       .  S
O1421      C1426   1.265       .  A
O1422      C1424   1.271       .  A
C1423      O1425   1.267       .  A
C1423      C1814   1.486       .  S
C1424      C1827   1.492       .  S
C1426      C1837   1.480       .  S
Fe1427     O1443   2.041       .  S
Fe1427     O1433   2.043       .  S
Fe1427     O1440   2.042       .  S
Fe1427     O1432   2.046       .  S
Fe1427     O1438   1.966       .  S
Fe1428     O1431   2.047       .  S
Fe1428     O1439   2.065       .  S
Fe1428     O1444   2.062       .  S
Fe1429     O1447   2.074       .  S
Fe1429     O1434   2.064       .  S
Fe1429     O1441   2.071       .  S
Fe1429     O1430   2.078       .  S
Fe1429     O1438   1.990       .  S
O1430      C1437   1.269       .  A
O1431      C1445   1.266       .  A
O1432      C1437   1.266       .  A
O1433      C1436   1.266       .  A
O1435      C1448   1.270       .  A
C1436      O1441   1.268       .  A
C1436      C1804   1.466       .  S
C1437      C1857   1.475       .  S
O1440      C1442   1.264       .  A
C1442      C1797   1.466       .  S
O1443      C1448   1.264       .  A
O1444      C1446   1.270       .  A
C1445      C1764   1.480       .  S
C1446      C1777   1.484       .  S
C1448      C1787   1.474       .  S
Fe1449     O1465   2.040       .  S
Fe1449     O1455   2.043       .  S
Fe1449     O1462   2.047       .  S
Fe1449     O1454   2.040       .  S
Fe1449     O1460   1.965       .  S
Fe1450     O1453   2.046       .  S
Fe1450     O3329   2.084       .  S
Fe1450     O3333   2.074       .  S
Fe1450     O1466   2.067       .  S
Fe1450     O3332   1.976       .  S
Fe1451     O1469   2.068       .  S
Fe1451     O1456   2.071       .  S
Fe1451     O1463   2.070       .  S
Fe1451     O1452   2.075       .  S
Fe1451     O1460   1.990       .  S
O1452      C1459   1.268       .  A
O1453      C1467   1.267       .  A
O1454      C1459   1.264       .  A
O1455      C1458   1.266       .  A
O1456      C3340   1.271   1_455  A
O1457     Fe3322   2.084       .  S
O1457      C1470   1.269       .  A
C1458      O1463   1.268       .  A
C1458      C1867   1.464       .  S
C1459      C1807   1.468       .  S
O1460     Fe3322   1.976       .  S
O1461     Fe3322   2.074       .  S
O1461      C1464   1.270       .  A
O1462      C1464   1.267       .  A
C1464      C1744   1.473       .  S
O1465      C1470   1.262       .  A
O1466      C1468   1.270       .  A
C1467      O3341   1.269       .  A
C1467      C1737   1.478       .  S
C1468      O3328   1.271       .  A
C1468      C1727   1.486       .  S
O1469      C3339   1.269       .  A
C1470      C1754   1.479       .  S
Fe1471     O1487   2.039       .  S
Fe1471     O1477   2.041       .  S
Fe1471     O1484   2.039       .  S
Fe1471     O1476   2.039       .  S
Fe1471     O1482   1.968       .  S
Fe1472     O1479   2.077       .  S
Fe1472     O1483   2.087       .  S
Fe1472     O1482   1.980       .  S
Fe1473     O1491   2.065       .  S
Fe1473     O1478   2.076       .  S
Fe1473     O1485   2.084       .  S
Fe1473     O1474   2.077       .  S
O1474      C1481   1.268       .  A
O1475      C1489   1.269       .  A
O1478      C1490   1.273       .  A
O1479      C1492   1.270       .  A
C1480      O1485   1.271       .  A
C1480      C1714   1.473       .  S
C1481      C1704   1.470       .  S
O1483      C1486   1.270       .  A
O1484      C1486   1.263       .  A
C1486      C1824   1.474       .  S
O1487      C1492   1.264       .  A
O1488      C1490   1.269       .  A
C1489      O1491   1.269       .  A
C1489      C1694   1.486       .  S
C1490      C1684   1.481       .  S
C1492      C1767   1.474       .  S
Fe1493     O1509   2.040       .  S
Fe1493     O1499   2.042       .  S
Fe1493     O1506   2.039       .  S
Fe1493     O1498   2.048       .  S
Fe1493     O1504   1.964       .  S
Fe1494     O1501   2.071       .  S
Fe1494     O1505   2.071       .  S
Fe1494     O1504   1.978       .  S
Fe1495     O1513   2.079       .  S
Fe1495     O1500   2.081       .  S
Fe1495     O1507   2.082       .  S
Fe1495     O1496   2.077       .  S
O1496      C1503   1.271       .  A
O1497      C1511   1.266       .  A
O1500      C1512   1.272       .  A
O1501      C1514   1.267       .  A
C1502      O1507   1.270       .  A
C1502      C1674   1.477       .  S
C1503      C1717   1.473       .  S
O1505      C1508   1.267       .  A
O1506      C1508   1.264       .  A
C1508      C1774   1.468       .  S
O1509      C1514   1.264       .  A
O1510      C1512   1.268       .  A
C1511      O1513   1.271       .  A
C1511      C1654   1.481       .  S
C1512      C1667   1.487       .  S
C1514      C1734   1.467       .  S
Fe1515     O1531   2.047       .  S
Fe1515     O1521   2.047       .  S
Fe1515     O1528   2.045       .  S
Fe1515     O1520   2.047       .  S
Fe1515     O1526   1.962       .  S
Fe1516     O1523   2.066       .  S
Fe1516     O1527   2.083       .  S
Fe1516     O1526   1.975       .  S
Fe1517     O1535   2.070       .  S
Fe1517     O1522   2.070       .  S
Fe1517     O1529   2.077       .  S
Fe1517     O1518   2.075       .  S
O1518      C1525   1.269       .  A
O1519      C1533   1.270       .  A
O1522      C1534   1.270       .  A
O1523      C1536   1.266       .  A
C1524      O1529   1.269       .  A
C1524      C1707   1.472       .  S
C1525      C1677   1.468       .  S
O1527      C1530   1.270       .  A
O1528      C1530   1.265       .  A
C1530      C1724   1.481       .  S
O1531      C1536   1.265       .  A
O1532      C1534   1.267       .  A
C1533      O1535   1.271       .  A
C1533      C1634   1.483       .  S
C1534      C1647   1.478       .  S
C1536      C1817   1.465       .  S
Fe1537     O1553   2.034       .  S
Fe1537     O1543   2.050       .  S
Fe1537     O1550   2.047       .  S
Fe1537     O1542   2.038       .  S
Fe1537     O1548   1.962       .  S
Fe1538     O1541   2.067       .  S
Fe1538     O1545   2.084       .  S
Fe1538     O1549   2.082       .  S
Fe1538     O1554   2.058       .  S
Fe1538     O1548   1.979       .  S
Fe1539     O1557   2.067       .  S
Fe1539     O1544   2.064       .  S
Fe1539     O1551   2.073       .  S
Fe1539     O1540   2.078       .  S
Fe1539     O1548   1.985       .  S
O1540      C1547   1.268       .  A
O1541      C1555   1.269       .  A
O1542      C1547   1.264       .  A
O1543      C1546   1.266       .  A
O1544      C1556   1.271       .  A
O1545      C1558   1.272       .  A
C1546      O1551   1.268       .  A
C1546      C1624   1.468       .  S
O1549      C1552   1.269       .  A
O1550      C1552   1.264       .  A
C1552      C1664   1.480       .  S
O1553      C1558   1.264       .  A
O1554      C1556   1.270       .  A
C1555      O1557   1.269       .  A
C1555      C1834   1.485       .  S
C1556      C1794   1.484       .  S
C1558      C1637   1.475       .  S
Fe1559     O1575   2.047       .  S
Fe1559     O1565   2.043       .  S
Fe1559     O1572   2.041       .  S
Fe1559     O1564   2.049       .  S
Fe1559     O1570   1.958       .  S
Fe1560     O1563   2.051       .  S
Fe1560     O1567   2.080       .  S
Fe1560     O1571   2.071       .  S
Fe1560     O1576   2.058       .  S
Fe1560     O1570   1.967       .  S
Fe1561     O1579   2.081       .  S
Fe1561     O1566   2.075       .  S
Fe1561     O1573   2.073       .  S
Fe1561     O1562   2.086       .  S
Fe1561     O1570   1.982       .  S
O1562      C1569   1.272       .  A
O1563      C1577   1.267       .  A
O1564      C1569   1.267       .  A
O1565      C1568   1.266       .  A
O1566      C1578   1.272       .  A
O1567      C1580   1.270       .  A
C1568      O1573   1.269       .  A
C1569      C3499   1.478   1_455  S
O1571      C1574   1.267       .  A
O1572      C1574   1.263       .  A
C1574      C1644   1.471       .  S
O1575      C1580   1.266       .  A
O1576      C1578   1.270       .  A
C1577      O1579   1.272       .  A
C1577      C1784   1.482       .  S
C1578      C1747   1.489       .  S
C1580      C1697   1.471       .  S
Fe1581     O1597   2.031       .  S
Fe1581     O1587   2.038       .  S
Fe1581     O1594   2.040       .  S
Fe1581     O1586   2.039       .  S
Fe1581     O1592   1.965       .  S
Fe1582     O1585   2.060       .  S
Fe1582     O1589   2.079       .  S
Fe1582     O1593   2.081       .  S
Fe1582     O1598   2.052       .  S
Fe1582     O1592   1.982       .  S
Fe1583     O1601   2.074       .  S
Fe1583     O1588   2.063       .  S
Fe1583     O1595   2.073       .  S
Fe1583     O1584   2.081       .  S
Fe1583     O1592   1.989       .  S
O1584      C1591   1.270       .  A
O1585      C1599   1.270       .  A
O1586      C1591   1.265       .  A
O1587      C1590   1.264       .  A
O1588      C1600   1.269       .  A
O1589      C1602   1.268       .  A
C1590      O1595   1.268       .  A
C1590      C3489   1.467   1_455  S
C1591      C1604   1.473       .  S
O1593      C1596   1.270       .  A
O1594      C1596   1.264       .  A
C1596      C1687   1.478       .  S
O1597      C1602   1.263       .  A
O1598      C1600   1.267       .  A
C1599      O1601   1.272       .  A
C1599      C1757   1.484       .  S
C1600      C1844   1.479       .  S
C1602      C1657   1.473       .  S
C1603      C1604   1.406       .  A
C1603      C1608   1.392       .  A
C1603      F1610   1.359       .  S
C1604      C1605   1.407       .  A
C1605      C1606   1.404       .  A
C1605      F1612   1.357       .  S
C1606      C1607   1.405       .  A
C1607      C1608   1.404       .  A
C1608      F1609   1.359       .  S
C1613      C1614   1.405       .  A
C1613      C1618   1.393       .  A
C1613      F1620   1.359       .  S
C1614      C1615   1.406       .  A
C1615      C1616   1.401       .  A
C1616      C1617   1.405       .  A
C1616      F3493   1.358       .  S
C1617      C3462   1.467       .  S
C1617      C1618   1.404       .  A
C1618      F1619   1.359       .  S
F1621      C3488   1.358       .  S
C1623      C1624   1.404       .  A
C1623      C1628   1.396       .  A
C1623      F1630   1.359       .  S
C1624      C1625   1.403       .  A
C1625      C1626   1.402       .  A
C1625      F1632   1.358       .  S
C1626      C1627   1.409       .  A
C1626      F3503   1.358       .  S
C1627      C3441   1.478       .  S
C1627      C1628   1.407       .  A
C1628      F1629   1.358       .  S
F1631      C3498   1.358       .  S
C1633      C1634   1.410       .  A
C1633      C1638   1.403       .  A
C1633      F1640   1.358       .  S
C1634      C1635   1.409       .  A
C1635      C1636   1.393       .  A
C1635      F1642   1.358       .  S
C1636      C1637   1.405       .  A
C1636      F1641   1.359       .  S
C1637      C1638   1.406       .  A
C1638      F1639   1.358       .  S
C1643      C3516   1.405       .  A
C1643      C1648   1.400       .  A
C1643      F1650   1.358       .  S
C1644      C3515   1.405       .  A
C1644      C1645   1.405       .  A
C1645      C3518   1.393   1_455  A
C1645      F1652   1.359       .  S
C1646      C3517   1.393       .  A
C1646      C1647   1.408       .  A
C1646      F3523   1.358       .  S
C1647      C1648   1.409       .  A
C1648      F1649   1.358       .  S
F1651      C3518   1.358       .  S
C1653      C1654   1.409       .  A
C1653      C3530   1.386       .  A
C1653      F1660   1.359       .  S
C1654      C1655   1.410       .  A
C1655      C1656   1.406       .  A
C1655      F1662   1.358       .  S
C1656      C3529   1.407       .  A
C1656      F1661   1.358       .  S
C1657      C3528   1.407       .  A
C1657      C1658   1.402       .  A
C1658      C3525   1.386   1_455  A
C1658      F1659   1.359       .  S
C1663      C1664   1.407       .  A
C1663      F1670   1.358       .  S
C1664      C1665   1.405       .  A
C1665      F1672   1.358       .  S
C1666      C1667   1.410       .  A
C1666      F1671   1.358       .  S
C1667      C1668   1.411       .  A
C1668      F1669   1.358       .  S
C1673      C1674   1.406       .  A
C1673      C1678   1.393       .  A
C1673      F1680   1.358   1_556  S
C1674      C1675   1.409       .  A
C1675      C1676   1.404       .  A
C1675      F1682   1.358       .  S
C1676      C1677   1.405       .  A
C1676      F1681   1.358       .  S
C1677      C1678   1.403       .  A
C1678      F1679   1.359   1_556  S
C1683      C1684   1.409       .  A
C1683      C1688   1.394       .  A
C1683      F1690   1.359       .  S
C1684      C1685   1.408       .  A
C1685      C1686   1.402       .  A
C1685      F1692   1.358       .  S
C1686      C1687   1.407       .  A
C1686      F1691   1.358       .  S
C1687      C1688   1.407       .  A
C1688      F1689   1.359       .  S
C1693      C1694   1.412       .  A
C1693      C1698   1.401       .  A
C1693      F1700   1.358       .  S
C1694      C1695   1.411       .  A
C1696      C1697   1.402       .  A
C1696      F1701   1.358       .  S
C1698      F1699   1.358       .  S
C1703      C1708   1.394       .  A
C1703      F1710   1.359       .  S
C1704      C1705   1.405       .  A
C1705      C1706   1.402       .  A
C1705      F1712   1.358       .  S
C1706      C1707   1.407       .  A
C1706      F1711   1.358       .  S
C1708      F1709   1.358       .  S
C1713      C1714   1.405       .  A
C1713      C1718   1.403       .  A
C1713      F1720   1.357       .  S
C1715      C1716   1.394       .  A
C1715      F1722   1.359       .  S
C1716      F1721   1.359       .  S
C1717      C1718   1.407       .  A
C1718      F1719   1.358       .  S
C1723      C1724   1.406       .  A
C1723      C1728   1.396       .  A
C1723      F1730   1.358       .  S
C1724      C1725   1.407       .  A
C1725      C1726   1.403       .  A
C1725      F1732   1.358       .  S
C1726      C1727   1.410       .  A
C1726      F3603   1.358       .  S
C1727      C1728   1.409       .  A
C1728      F1729   1.358       .  S
F1731      C3598   1.358   1_455  S
C1733      C1734   1.405       .  A
C1733      C1738   1.402       .  A
C1733      F1740   1.358       .  S
C1734      C1735   1.402       .  A
C1735      C1736   1.390       .  A
C1735      F1742   1.358       .  S
C1736      C1737   1.408       .  A
C1736      F1741   1.358       .  S
C1737      C1738   1.411       .  A
C1738      F3611   1.358       .  S
F1739      C3610   1.358   1_455  S
C1743      C1744   1.402       .  A
C1743      C1748   1.392       .  A
C1743      F3622   1.359       .  S
C1744      C1745   1.405       .  A
C1745      C1746   1.403       .  A
C1745      F1752   1.358       .  S
C1746      C1747   1.412       .  A
C1746      F1751   1.358       .  S
C1747      C1748   1.413       .  A
C1748      F1749   1.358       .  S
F1750      C3615   1.359       .  S
C1753      C1754   1.407       .  A
C1753      C1758   1.404       .  A
C1753      F3632   1.358       .  S
C1754      C1755   1.406       .  A
C1755      C1756   1.396       .  A
C1755      F1762   1.358       .  S
C1756      C1757   1.409       .  A
C1756      F1761   1.358       .  S
C1757      C1758   1.410       .  A
C1758      F1759   1.358       .  S
F1760      C3625   1.358       .  S
C1763      C1764   1.408       .  A
C1763      C1768   1.401       .  A
C1763      F1770   1.358       .  S
C1764      C1765   1.409       .  A
C1765      C1766   1.394       .  A
C1765      F1772   1.359       .  S
C1766      C1767   1.405       .  A
C1766      F1771   1.359       .  S
C1767      C1768   1.406       .  A
C1768      F1769   1.358       .  S
C1773      C1774   1.403       .  A
C1773      C1778   1.400       .  A
C1773      F1780   1.358       .  S
C1774      C1775   1.403       .  A
C1775      C1776   1.394       .  A
C1775      F1782   1.359       .  S
C1776      C1777   1.410       .  A
C1776      F1781   1.358       .  S
C1777      C1778   1.412       .  A
C1783      C1784   1.408       .  A
C1783      C1788   1.393       .  A
C1783      F1790   1.358       .  S
C1784      C1785   1.410       .  A
C1785      C1786   1.405       .  A
C1785      F1792   1.358       .  S
C1786      C1787   1.406       .  A
C1786      F1791   1.358       .  S
C1787      C1788   1.404       .  A
C1788      F1789   1.359       .  S
C1793      C1794   1.412       .  A
C1793      C1798   1.394       .  A
C1793      F1800   1.358       .  S
C1794      C1795   1.412       .  A
C1795      C1796   1.398       .  A
C1796      C1797   1.403       .  A
C1797      C1798   1.401       .  A
C1798      F1799   1.358       .  S
C1803      C1804   1.404       .  A
C1803      C1808   1.393       .  A
C1803      F1810   1.359       .  S
C1804      C1805   1.405       .  A
C1805      C1806   1.401       .  A
C1805      F1812   1.358       .  S
C1806      C1807   1.406       .  A
C1806      F1811   1.358       .  S
C1807      C1808   1.404       .  A
C1808      F1809   1.358       .  S
C1813      C1814   1.412       .  A
C1813      C1818   1.393       .  A
C1813      F1820   1.358       .  S
C1814      C1815   1.414       .  A
C1815      C1816   1.399       .  A
C1815      F1822   1.358       .  S
C1816      C1817   1.402       .  A
C1816      F1821   1.358       .  S
C1817      C1818   1.400       .  A
C1818      F1819   1.358       .  S
C1823      C1824   1.404       .  A
C1823      C1828   1.405       .  A
C1823      F1830   1.358       .  S
C1824      C1825   1.402       .  A
C1825      C1826   1.395       .  A
C1825      F1832   1.358       .  S
C1826      C1827   1.412       .  A
C1826      F1831   1.358       .  S
C1827      C1828   1.414       .  A
C1828      F1829   1.358       .  S
C1833      C1834   1.408       .  A
C1833      C1838   1.398       .  A
C1833      F1840   1.358       .  S
C1834      C1835   1.410       .  A
C1835      C1836   1.403       .  A
C1835      F1842   1.358       .  S
C1836      C1837   1.405       .  A
C1836      F1841   1.358       .  S
C1837      C1838   1.407       .  A
C1838      F1839   1.359       .  S
C1843      C1844   1.409       .  A
C1843      C1848   1.391       .  A
C1843      F1850   1.358       .  S
C1844      C1845   1.410       .  A
C1845      C1846   1.401       .  A
C1845      F1852   1.358       .  S
C1846      C1847   1.404       .  A
C1846      F1851   1.358       .  S
C1847      C1848   1.403       .  A
C1848      F1849   1.359       .  S
C1853      C1854   1.406       .  A
C1853      C1858   1.404       .  A
C1853      F1860   1.358       .  S
C1854      C1855   1.406       .  A
C1855      C1856   1.393       .  A
C1855      F1862   1.359       .  S
C1856      C1857   1.405       .  A
C1856      F1861   1.359       .  S
C1857      C1858   1.408       .  A
C1858      F1859   1.358       .  S
C1863      C1864   1.403       .  A
C1863      C1868   1.392       .  A
C1863      F1870   1.358       .  S
C1864      C1865   1.406       .  A
C1865      C1866   1.400       .  A
C1865      F1872   1.358       .  S
C1866      C1867   1.404       .  A
C1866      F1871   1.358       .  S
C1867      C1868   1.404       .  A
C1868      F1869   1.359       .  S
Fe1873     O1889   2.047       .  S
Fe1873     O1879   2.038       .  S
Fe1873     O1886   2.035       .  S
Fe1873     O1878   2.045       .  S
Fe1873     O1884   1.965       .  S
Fe1874     O1877   2.054       .  S
Fe1874     O1881   2.083       .  S
Fe1874     O1885   2.074       .  S
Fe1874     O1890   2.064       .  S
Fe1874     O1884   1.978       .  S
Fe1875     O1893   2.059       .  S
Fe1875     O1880   2.078       .  S
Fe1875     O1887   2.085       .  S
Fe1875     O1876   2.065       .  S
Fe1875     O1884   1.992       .  S
O1876      C1883   1.266       .  A
O1877      C1891   1.267       .  A
O1878      C1883   1.265       .  A
O1879      C1882   1.266       .  A
O1880      C1892   1.272       .  A
O1881      C1894   1.270       .  A
C1882      O1887   1.271       .  A
C1882      C2322   1.473       .  S
C1883      C2332   1.467       .  S
O1885      C1888   1.268       .  A
O1886      C1888   1.263       .  A
C1888      C2315   1.468       .  S
O1889      C1894   1.265       .  A
O1890      C1892   1.271       .  A
C1891      O1893   1.267       .  A
C1891      C2282   1.485       .  S
C1892      C2295   1.492       .  S
C1894      C2305   1.479       .  S
Fe1895     O1911   2.041       .  S
Fe1895     O1901   2.043       .  S
Fe1895     O1908   2.043       .  S
Fe1895     O1900   2.046       .  S
Fe1895     O1906   1.966       .  S
Fe1896     O1899   2.047   1_565  S
Fe1896     O2839   2.083       .  S
Fe1896     O1907   2.066       .  S
Fe1896     O1912   2.061   1_565  S
Fe1896     O2842   1.981       .  S
Fe1897     O1915   2.074       .  S
Fe1897     O1902   2.064       .  S
Fe1897     O1909   2.070       .  S
Fe1897     O1898   2.078       .  S
Fe1897     O1906   1.990       .  S
O1898      C1905   1.269       .  A
O1899      C1913   1.266       .  A
O1900      C1905   1.266       .  A
O1901      C1904   1.266       .  A
O1902      C2850   1.270       .  A
O1903     Fe2832   2.083       .  S
O1903      C1916   1.270       .  A
C1904      O1909   1.268       .  A
C1904      C2272   1.466       .  S
C1905      C2325   1.475       .  S
O1906     Fe2832   1.981       .  S
O1907      C2846   1.266       .  A
O1908      C1910   1.264       .  A
C1910      O2843   1.266       .  A
C1910      C2265   1.466       .  S
O1911      C1916   1.264       .  A
O1912      C1914   1.270       .  A
C1913      O2851   1.270   1_545  A
C1913      C2232   1.480       .  S
C1914      O2838   1.270   1_545  A
C1914      C2245   1.484       .  S
O1915      C2849   1.270       .  A
C1916      C2255   1.475       .  S
Fe1917     O1933   2.040       .  S
Fe1917     O1923   2.043       .  S
Fe1917     O1930   2.047       .  S
Fe1917     O1922   2.040       .  S
Fe1917     O1928   1.965       .  S
Fe1918     O1921   2.047   1_455  S
Fe1918     O1934   2.067   1_455  S
Fe1919     O1937   2.067       .  S
Fe1919     O1924   2.071       .  S
Fe1919     O1931   2.070       .  S
Fe1919     O1920   2.074       .  S
Fe1919     O1928   1.990       .  S
O1920      C1927   1.268       .  A
O1921      C1935   1.267   1_655  A
O1922      C1927   1.264       .  A
O1923      C1926   1.266       .  A
O1925      C1938   1.269       .  A
C1926      O1931   1.268       .  A
C1926      C2335   1.464       .  S
C1927      C2275   1.468       .  S
O1929      C1932   1.269       .  A
O1930      C1932   1.267       .  A
C1932      C2212   1.473       .  S
O1933      C1938   1.262       .  A
O1934      C1936   1.270       .  A
C1935      C2205   1.478   1_455  S
C1936      C2195   1.486       .  S
C1938      C2222   1.479       .  S
Fe1939     O1955   2.039       .  S
Fe1939     O1945   2.041       .  S
Fe1939     O1952   2.039       .  S
Fe1939     O1944   2.039       .  S
Fe1939     O1950   1.968       .  S
Fe1940     O2411   2.065   1_554  S
Fe1940     O1947   2.077       .  S
Fe1940     O1951   2.087       .  S
Fe1940     O2424   2.055   1_554  S
Fe1940     O1950   1.980       .  S
Fe1941     O1959   2.065       .  S
Fe1941     O1946   2.076       .  S
Fe1941     O1953   2.084       .  S
Fe1941     O1942   2.077       .  S
Fe1941     O2418   1.989       .  S
O1942      C1949   1.268       .  A
O1943     Fe2408   2.065       .  S
O1943      C1957   1.269       .  A
O1944      C2417   1.264   1_554  A
O1945      C2416   1.265   1_554  A
O1946      C1958   1.273       .  A
O1947      C1960   1.270       .  A
C1948      O2413   1.265       .  A
C1948      O1953   1.271       .  A
C1948      C2182   1.472       .  S
C1949      O2412   1.264       .  A
C1949      C2172   1.470       .  S
O1950     Fe2409   1.989   1_554  S
O1951      C1954   1.270       .  A
O1952      C1954   1.263       .  A
C1954      C2292   1.474       .  S
O1955      C1960   1.264       .  A
O1956     Fe2408   2.055       .  S
O1956      C1958   1.269       .  A
C1957      O1959   1.269       .  A
C1957      C2162   1.487       .  S
C1958      C2152   1.481       .  S
C1960      C2235   1.474       .  S
Fe1961     O1977   2.040       .  S
Fe1961     O1967   2.042       .  S
Fe1961     O1974   2.039       .  S
Fe1961     O1966   2.047       .  S
Fe1961     O1972   1.964       .  S
Fe1962     O2433   2.040   1_554  S
Fe1962     O1969   2.071       .  S
Fe1962     O1973   2.071       .  S
Fe1962     O2446   2.055   1_554  S
Fe1962     O1972   1.978       .  S
Fe1963     O1981   2.080       .  S
Fe1963     O1968   2.082       .  S
Fe1963     O1975   2.083       .  S
Fe1963     O1964   2.078       .  S
Fe1963     O2440   1.990       .  S
O1964      C1971   1.271       .  A
O1965     Fe2430   2.040       .  S
O1965      C1979   1.266       .  A
O1966      C2439   1.267   1_554  A
O1967      C2438   1.265   1_554  A
O1968      C1980   1.272       .  A
O1969      C1982   1.267       .  A
C1970      O2435   1.265       .  A
C1970      O1975   1.270       .  A
C1970      C2142   1.477       .  S
C1971      O2434   1.267       .  A
C1971      C2185   1.473       .  S
O1972     Fe2431   1.990   1_554  S
O1973      C1976   1.267       .  A
O1974      C1976   1.264       .  A
C1976      C2242   1.468       .  S
O1977      C1982   1.264       .  A
O1978     Fe2430   2.055       .  S
O1978      C1980   1.268       .  A
C1979      O1981   1.271       .  A
C1979      C2122   1.481       .  S
C1980      C2135   1.487       .  S
C1982      C2202   1.467       .  S
Fe1983     O1999   2.047       .  S
Fe1983     O1989   2.047       .  S
Fe1983     O1996   2.045       .  S
Fe1983     O1988   2.047       .  S
Fe1983     O1994   1.962       .  S
Fe1984     O2455   2.061   1_554  S
Fe1984     O1991   2.066       .  S
Fe1984     O1995   2.083       .  S
Fe1984     O2468   2.049   1_554  S
Fe1984     O1994   1.975       .  S
Fe1985     O2003   2.070       .  S
Fe1985     O1990   2.069       .  S
Fe1985     O1997   2.076       .  S
Fe1985     O1986   2.075       .  S
Fe1985     O2462   1.985       .  S
O1986      C1993   1.269       .  A
O1987     Fe2452   2.061       .  S
O1987      C2001   1.270       .  A
O1988      C2461   1.267   1_554  A
O1989      C2460   1.266   1_554  A
O1990      C2002   1.270       .  A
O1991      C2004   1.266       .  A
C1992      O2457   1.266       .  A
C1992      O1997   1.268       .  A
C1992      C2175   1.472       .  S
C1993      O2456   1.267       .  A
C1993      C2145   1.469       .  S
O1994     Fe2453   1.985   1_554  S
O1995      C1998   1.271       .  A
O1996      C1998   1.265       .  A
C1998      C2192   1.481       .  S
O1999      C2004   1.265       .  A
O2000     Fe2452   2.049       .  S
O2000      C2002   1.267       .  A
C2001      O2003   1.271       .  A
C2001      C2102   1.482       .  S
C2002      C2115   1.477       .  S
C2004      C2285   1.465       .  S
Fe2005     O2021   2.034       .  S
Fe2005     O2011   2.050       .  S
Fe2005     O2018   2.046       .  S
Fe2005     O2010   2.038       .  S
Fe2005     O2016   1.962       .  S
Fe2006     O2009   2.067       .  S
Fe2006     O2013   2.084       .  S
Fe2006     O2017   2.082       .  S
Fe2006     O2022   2.058       .  S
Fe2006     O2016   1.979       .  S
Fe2007     O2025   2.067       .  S
Fe2007     O2012   2.064       .  S
Fe2007     O2019   2.074       .  S
Fe2007     O2008   2.078       .  S
Fe2007     O2016   1.985       .  S
O2008      C2015   1.268       .  A
O2009      C2023   1.269       .  A
O2010      C2015   1.264       .  A
O2011      C2014   1.266       .  A
O2012      C2024   1.271       .  A
O2013      C2026   1.272       .  A
C2014      O2019   1.269       .  A
C2014      C2092   1.468       .  S
C2015      C3018   1.470       .  S
O2017      C2020   1.269       .  A
O2018      C2020   1.264       .  A
C2020      C2132   1.479       .  S
O2021      C2026   1.264       .  A
O2022      C2024   1.270       .  A
C2023      O2025   1.269       .  A
C2023      C2302   1.485       .  S
C2024      C2262   1.484       .  S
C2026      C2105   1.475       .  S
Fe2027     O2043   2.046       .  S
Fe2027     O2033   2.043       .  S
Fe2027     O2040   2.041       .  S
Fe2027     O2032   2.049       .  S
Fe2027     O2038   1.958       .  S
Fe2028     O2031   2.051       .  S
Fe2028     O2035   2.080       .  S
Fe2028     O2039   2.070       .  S
Fe2028     O2044   2.057       .  S
Fe2028     O2038   1.967       .  S
Fe2029     O2047   2.081       .  S
Fe2029     O2034   2.076       .  S
Fe2029     O2041   2.074       .  S
Fe2029     O2030   2.086       .  S
Fe2029     O2038   1.982       .  S
O2030      C2037   1.272       .  A
O2031      C2045   1.267       .  A
O2032      C2037   1.267       .  A
O2033      C2036   1.266       .  A
O2034      C2046   1.272       .  A
O2035      C2048   1.270       .  A
C2036      O2041   1.269       .  A
C2036      C3011   1.468       .  S
O2039      C2042   1.267       .  A
O2040      C2042   1.263       .  A
C2042      C2112   1.471       .  S
O2043      C2048   1.266       .  A
O2044      C2046   1.270       .  A
C2045      O2047   1.272       .  A
C2045      C2252   1.482       .  S
C2046      C2215   1.488       .  S
C2048      C2165   1.471       .  S
Fe2049     O2065   2.031       .  S
Fe2049     O2055   2.038       .  S
Fe2049     O2062   2.040       .  S
Fe2049     O2054   2.039       .  S
Fe2049     O2060   1.964       .  S
Fe2050     O2053   2.060       .  S
Fe2050     O2057   2.079       .  S
Fe2050     O2061   2.080       .  S
Fe2050     O2066   2.052       .  S
Fe2050     O2060   1.982       .  S
Fe2051     O2069   2.074       .  S
Fe2051     O2056   2.063       .  S
Fe2051     O2063   2.073       .  S
Fe2051     O2052   2.080       .  S
Fe2051     O2060   1.989       .  S
O2052      C2059   1.269       .  A
O2053      C2067   1.270       .  A
O2054      C2059   1.265       .  A
O2055      C2058   1.264       .  A
O2056      C2068   1.269       .  A
O2057      C2070   1.268       .  A
C2058      O2063   1.268       .  A
C2059      C2072   1.472       .  S
O2061      C2064   1.270       .  A
O2062      C2064   1.264       .  A
C2064      C2155   1.478       .  S
O2065      C2070   1.263       .  A
O2066      C2068   1.267       .  A
C2067      O2069   1.272       .  A
C2067      C2225   1.484       .  S
C2068      C2312   1.479       .  S
C2070      C2125   1.473       .  S
C2071      C2072   1.406       .  A
C2071      C2076   1.392       .  A
C2071      F2078   1.359       .  S
C2072      C2073   1.407       .  A
C2073      C2074   1.404       .  A
C2073      F2080   1.357       .  S
C2074      C2075   1.405       .  A
C2074      F3015   1.358       .  S
C2075      C2972   1.467   1_545  S
C2075      C2076   1.404       .  A
C2076      F2077   1.359       .  S
F2079      C3010   1.357       .  S
C2081      C2082   1.405       .  A
C2081      C2086   1.393       .  A
C2081      F2088   1.359       .  S
C2082      C2951   1.470   1_545  S
C2082      C2083   1.406       .  A
C2083      C2084   1.401       .  A
C2083      F3026   1.358       .  S
C2084      C2085   1.405       .  A
C2085      C2086   1.404       .  A
C2086      F2087   1.359       .  S
F2090      C3019   1.358       .  S
C2091      C2092   1.404       .  A
C2091      C2096   1.396       .  A
C2091      F2098   1.359       .  S
C2092      C2093   1.403       .  A
C2093      C2094   1.402       .  A
C2093      F2100   1.358       .  S
C2094      C2095   1.409       .  A
C2095      C2096   1.407       .  A
C2096      F2097   1.358       .  S
C2101      C2102   1.410       .  A
C2101      C2106   1.403       .  A
C2101      F2108   1.358       .  S
C2102      C2103   1.408       .  A
C2103      C2104   1.392       .  A
C2103      F2110   1.358       .  S
C2104      C2105   1.406       .  A
C2104      F2109   1.359       .  S
C2105      C2106   1.406       .  A
C2106      F2107   1.358       .  S
C2111      C2116   1.400   1_455  A
C2111      F2118   1.358       .  S
C2112      C2113   1.405       .  A
C2113      F2120   1.359       .  S
C2114      C2115   1.408       .  A
C2115      C2116   1.409       .  A
C2116      F2117   1.358       .  S
C2121      C2122   1.409       .  A
C2121      F2128   1.359       .  S
C2122      C2123   1.410       .  A
C2123      C2124   1.406   1_655  A
C2123      F2130   1.358       .  S
C2124      F2129   1.358       .  S
C2125      C2126   1.402       .  A
C2126      F2127   1.359       .  S
C2131      C2132   1.407       .  A
C2131      C3072   1.405       .  A
C2131      F2138   1.358       .  S
C2132      C2133   1.405       .  A
C2133      C3070   1.395       .  A
C2133      F2140   1.358       .  S
C2134      C3069   1.395   1_545  A
C2134      C2135   1.410       .  A
C2134      F2139   1.358       .  S
C2135      C2136   1.411       .  A
C2136      C3067   1.405   1_545  A
C2136      F2137   1.358       .  S
C2141      C2142   1.406       .  A
C2141      C2146   1.393       .  A
C2141      F2148   1.358       .  S
C2142      C2143   1.409       .  A
C2143      C2144   1.404       .  A
C2143      F2150   1.358       .  S
C2144      C2145   1.405       .  A
C2144      F2149   1.358       .  S
C2145      C2146   1.403       .  A
C2146      F2147   1.359       .  S
C2151      C2152   1.409       .  A
C2151      C2156   1.394       .  A
C2151      F2158   1.359       .  S
C2152      C2153   1.408       .  A
C2153      C2154   1.402       .  A
C2153      F2160   1.358       .  S
C2154      C2155   1.407       .  A
C2154      F2159   1.358       .  S
C2155      C2156   1.407       .  A
C2156      F2157   1.359       .  S
C2161      C2162   1.412       .  A
C2161      C2166   1.402   1_545  A
C2161      F2168   1.358       .  S
C2162      C2163   1.411       .  A
C2163      C3100   1.397   1_545  A
C2163      F3106   1.358       .  S
C2164      C3099   1.396       .  A
C2164      C2165   1.402       .  A
C2164      F2169   1.358       .  S
C2165      C3102   1.403       .  A
C2166      C3101   1.403       .  A
C2166      F2167   1.358       .  S
F2170      C3099   1.358       .  S
C2171      C2640   1.405       .  A
C2171      C2176   1.394       .  A
C2171      F2178   1.359   1_556  S
C2172      C2639   1.405       .  A
C2172      C2173   1.405       .  A
C2173      C2174   1.402       .  A
C2173      F2180   1.358       .  S
C2174      C2175   1.407       .  A
C2174      F2179   1.358       .  S
C2175      C2644   1.405       .  A
C2176      C2643   1.405       .  A
C2176      F2177   1.358   1_556  S
C2181      C2182   1.405       .  A
C2181      C2186   1.403       .  A
C2181      F2188   1.357       .  S
C2182      C2651   1.406       .  A
C2183      C2650   1.406       .  A
C2183      C2184   1.394       .  A
C2183      F2190   1.359   1_556  S
C2184      C2653   1.405       .  A
C2184      F2189   1.359   1_556  S
C2185      C2652   1.405       .  A
C2185      C2186   1.407       .  A
C2186      F2187   1.358       .  S
C2191      C2192   1.406       .  A
C2191      C2196   1.396       .  A
C2191      F2198   1.358       .  S
C2192      C2193   1.407       .  A
C2193      C2194   1.404       .  A
C2193      F2200   1.358       .  S
C2194      C2195   1.410       .  A
C2195      C2196   1.409       .  A
C2196      F2197   1.358       .  S
C2201      C2202   1.405       .  A
C2201      C2206   1.402       .  A
C2201      F2208   1.358       .  S
C2202      C2203   1.402       .  A
C2203      C2204   1.390       .  A
C2203      F2210   1.358       .  S
C2204      C2205   1.408       .  A
C2204      F2209   1.358       .  S
C2205      C2206   1.411       .  A
C2211      C2212   1.402       .  A
C2211      C2216   1.392       .  A
C2212      C2213   1.405       .  A
C2213      C2214   1.403       .  A
C2213      F2220   1.358       .  S
C2214      C2215   1.412       .  A
C2214      F2219   1.358       .  S
C2215      C2216   1.413       .  A
C2216      F2217   1.358       .  S
C2221      C2222   1.407       .  A
C2221      C2226   1.404       .  A
C2222      C2223   1.406       .  A
C2223      C2224   1.395       .  A
C2223      F2230   1.358       .  S
C2224      C2225   1.408       .  A
C2224      F2229   1.358       .  S
C2225      C2226   1.410       .  A
C2226      F2227   1.358       .  S
C2231      C2232   1.408       .  A
C2231      C2236   1.401       .  A
C2231      F2238   1.358   1_545  S
C2232      C2233   1.409       .  A
C2233      C2234   1.394       .  A
C2233      F2240   1.359       .  S
C2234      C2235   1.405       .  A
C2234      F2239   1.359       .  S
C2235      C2236   1.406       .  A
C2236      F2237   1.358       .  S
C2241      C2242   1.403       .  A
C2241      C2246   1.400       .  A
C2241      F2248   1.358       .  S
C2242      C2243   1.403       .  A
C2243      C2244   1.394       .  A
C2243      F2250   1.359       .  S
C2244      C2245   1.410       .  A
C2244      F2249   1.358       .  S
C2245      C2246   1.412       .  A
C2246      F3183   1.358   1_545  S
F2247      C3182   1.358       .  S
C2251      C2252   1.408       .  A
C2251      C2256   1.393       .  A
C2251      F2258   1.358       .  S
C2252      C2253   1.410       .  A
C2253      C2254   1.405       .  A
C2253      F2260   1.358       .  S
C2254      C2255   1.406       .  A
C2254      F2259   1.358       .  S
C2255      C2256   1.404       .  A
C2256      F2257   1.359       .  S
C2261      C2262   1.412       .  A
C2261      C2266   1.394       .  A
C2261      F2268   1.358       .  S
C2262      C2263   1.412       .  A
C2263      C2264   1.398       .  A
C2263      F3206   1.358       .  S
C2264      C2265   1.403       .  A
C2264      F3205   1.358       .  S
C2265      C2266   1.401       .  A
C2266      F2267   1.358       .  S
F2269      C3200   1.358       .  S
F2270      C3199   1.358       .  S
C2271      C2272   1.404       .  A
C2271      C2276   1.393       .  A
C2271      F2278   1.359       .  S
C2272      C2273   1.404       .  A
C2273      C2274   1.401       .  A
C2273      F2280   1.358       .  S
C2274      C2275   1.406       .  A
C2274      F2279   1.358       .  S
C2275      C2276   1.404       .  A
C2276      F2277   1.358       .  S
C2281      C2282   1.412       .  A
C2281      C2286   1.393       .  A
C2281      F2288   1.358       .  S
C2282      C2283   1.413       .  A
C2283      C2284   1.399       .  A
C2283      F2290   1.358       .  S
C2284      C2285   1.402       .  A
C2284      F2289   1.358       .  S
C2285      C2286   1.400       .  A
C2286      F2287   1.358       .  S
C2291      C2292   1.404       .  A
C2291      C2296   1.405       .  A
C2291      F2298   1.358       .  S
C2292      C2293   1.402       .  A
C2293      C2294   1.395       .  A
C2293      F2300   1.358       .  S
C2294      C2295   1.412       .  A
C2294      F2299   1.358       .  S
C2295      C2296   1.414       .  A
C2296      F2297   1.358       .  S
C2301      C2302   1.408       .  A
C2301      C2306   1.398       .  A
C2301      F2308   1.358       .  S
C2302      C2303   1.411       .  A
C2303      C2304   1.402       .  A
C2303      F2310   1.358       .  S
C2304      C2305   1.405       .  A
C2304      F2309   1.358       .  S
C2305      C2306   1.407       .  A
C2306      F2307   1.359       .  S
C2311      C2312   1.409       .  A
C2311      C2316   1.391       .  A
C2311      F2318   1.358       .  S
C2312      C2313   1.410       .  A
C2313      C2314   1.401       .  A
C2313      F2320   1.358       .  S
C2314      C2315   1.404       .  A
C2314      F2319   1.358       .  S
C2315      C2316   1.403       .  A
C2316      F2317   1.359       .  S
C2321      C2322   1.406       .  A
C2321      C2326   1.404       .  A
C2321      F2328   1.358       .  S
C2322      C2323   1.406       .  A
C2323      C2324   1.393       .  A
C2323      F2330   1.359       .  S
C2324      C2325   1.405       .  A
C2324      F2329   1.359       .  S
C2325      C2326   1.408       .  A
C2326      F2327   1.358       .  S
C2331      C2332   1.403       .  A
C2331      C2336   1.392       .  A
C2331      F2338   1.358       .  S
C2332      C2333   1.406       .  A
C2333      C2334   1.400       .  A
C2333      F2340   1.358       .  S
C2334      C2335   1.404       .  A
C2334      F2339   1.358       .  S
C2335      C2336   1.404       .  A
C2336      F2337   1.359       .  S
Fe2341     O2357   2.047       .  S
Fe2341     O2347   2.038       .  S
Fe2341     O2354   2.035       .  S
Fe2341     O2346   2.045       .  S
Fe2341     O2352   1.965       .  S
Fe2342     O2345   2.054       .  S
Fe2342     O2349   2.083       .  S
Fe2342     O2353   2.074       .  S
Fe2342     O2358   2.064       .  S
Fe2342     O2352   1.978       .  S
Fe2343     O2361   2.059       .  S
Fe2343     O2348   2.078       .  S
Fe2343     O2355   2.085       .  S
Fe2343     O2344   2.065       .  S
Fe2343     O2352   1.992       .  S
O2344      C2351   1.266       .  A
O2345      C2359   1.267       .  A
O2346      C2351   1.265       .  A
O2347      C2350   1.266       .  A
O2348      C2360   1.272       .  A
O2349      C2362   1.270       .  A
C2350      O2355   1.271       .  A
C2350      C2790   1.473       .  S
C2351      C2800   1.467       .  S
O2353      C2356   1.268       .  A
O2354      C2356   1.263       .  A
C2356      C2783   1.468       .  S
O2357      C2362   1.265       .  A
O2358      C2360   1.271       .  A
C2359      O2361   1.267       .  A
C2359      C2750   1.485       .  S
C2360      C2763   1.492       .  S
C2362      C2773   1.479       .  S
Fe2363     O2379   2.041       .  S
Fe2363     O2369   2.043       .  S
Fe2363     O2376   2.043       .  S
Fe2363     O2368   2.046       .  S
Fe2363     O2374   1.966       .  S
Fe2364     O2367   2.047   1_565  S
Fe2364     O3307   2.083       .  S
Fe2364     O2375   2.066       .  S
Fe2364     O2380   2.061   1_565  S
Fe2364     O3310   1.981       .  S
Fe2365     O2383   2.074       .  S
Fe2365     O2370   2.064       .  S
Fe2365     O2377   2.070       .  S
Fe2365     O2366   2.078       .  S
Fe2365     O2374   1.990       .  S
O2366      C2373   1.269       .  A
O2367      C2381   1.266       .  A
O2368      C2373   1.266       .  A
O2369      C2372   1.266       .  A
O2370      C3318   1.270       .  A
O2371     Fe3300   2.083       .  S
O2371      C2384   1.270       .  A
C2372      O2377   1.268       .  A
C2372      C2740   1.466       .  S
C2373      C2793   1.475       .  S
O2374     Fe3300   1.981       .  S
O2375      C3314   1.266       .  A
O2376      C2378   1.264       .  A
C2378      O3311   1.266       .  A
C2378      C2733   1.466       .  S
O2379      C2384   1.264       .  A
O2380      C2382   1.270       .  A
C2381      O3319   1.270   1_545  A
C2381      C2700   1.480       .  S
C2382      O3306   1.270   1_545  A
C2382      C2713   1.484       .  S
O2383      C3317   1.270       .  A
C2384      C2723   1.475       .  S
Fe2385     O2401   2.040       .  S
Fe2385     O2391   2.043       .  S
Fe2385     O2398   2.047       .  S
Fe2385     O2390   2.040       .  S
Fe2385     O2396   1.965       .  S
Fe2386     O2389   2.047   1_455  S
Fe2386     O2402   2.067   1_455  S
Fe2387     O2405   2.067       .  S
Fe2387     O2392   2.071       .  S
Fe2387     O2399   2.070       .  S
Fe2387     O2388   2.074       .  S
Fe2387     O2396   1.990       .  S
O2388      C2395   1.268       .  A
O2389      C2403   1.267   1_655  A
O2390      C2395   1.264       .  A
O2391      C2394   1.266       .  A
O2393      C2406   1.269       .  A
C2394      O2399   1.268       .  A
C2394      C2803   1.465       .  S
C2395      C2743   1.468       .  S
O2397      C2400   1.269       .  A
O2398      C2400   1.267       .  A
C2400      C2680   1.473       .  S
O2401      C2406   1.262       .  A
O2402      C2404   1.270       .  A
C2403      C2673   1.478   1_455  S
C2404      C2663   1.486       .  S
C2406      C2690   1.478       .  S
Fe2407     O2423   2.039       .  S
Fe2407     O2413   2.041       .  S
Fe2407     O2420   2.039       .  S
Fe2407     O2412   2.039       .  S
Fe2407     O2418   1.968       .  S
Fe2408     O2415   2.077       .  S
Fe2408     O2419   2.086       .  S
Fe2408     O2418   1.980       .  S
Fe2409     O2427   2.065       .  S
Fe2409     O2414   2.076       .  S
Fe2409     O2421   2.084       .  S
Fe2409     O2410   2.077       .  S
O2410      C2417   1.268       .  A
O2411      C2425   1.269       .  A
O2414      C2426   1.273       .  A
O2415      C2428   1.270       .  A
C2416      O2421   1.271       .  A
C2416      C2650   1.472       .  S
C2417      C2640   1.470       .  S
O2419      C2422   1.270       .  A
O2420      C2422   1.263       .  A
C2422      C2760   1.474       .  S
O2423      C2428   1.264       .  A
O2424      C2426   1.269       .  A
C2425      O2427   1.269       .  A
C2425      C2630   1.487       .  S
C2426      C2620   1.481       .  S
C2428      C2703   1.474       .  S
Fe2429     O2445   2.040       .  S
Fe2429     O2435   2.042       .  S
Fe2429     O2442   2.039       .  S
Fe2429     O2434   2.047       .  S
Fe2429     O2440   1.964       .  S
Fe2430     O2437   2.071       .  S
Fe2430     O2441   2.071       .  S
Fe2430     O2440   1.978       .  S
Fe2431     O2449   2.080       .  S
Fe2431     O2436   2.082       .  S
Fe2431     O2443   2.083       .  S
Fe2431     O2432   2.078       .  S
O2432      C2439   1.271       .  A
O2433      C2447   1.266       .  A
O2436      C2448   1.272       .  A
O2437      C2450   1.267       .  A
C2438      O2443   1.270       .  A
C2438      C2610   1.477       .  S
C2439      C2653   1.473       .  S
O2441      C2444   1.267       .  A
O2442      C2444   1.264       .  A
C2444      C2710   1.468       .  S
O2445      C2450   1.264       .  A
O2446      C2448   1.268       .  A
C2447      O2449   1.271       .  A
C2447      C2590   1.481       .  S
C2448      C2603   1.487       .  S
C2450      C2670   1.467       .  S
Fe2451     O2467   2.047       .  S
Fe2451     O2457   2.047       .  S
Fe2451     O2464   2.046       .  S
Fe2451     O2456   2.047       .  S
Fe2451     O2462   1.962       .  S
Fe2452     O2459   2.066       .  S
Fe2452     O2463   2.083       .  S
Fe2452     O2462   1.976       .  S
Fe2453     O2471   2.070       .  S
Fe2453     O2458   2.069       .  S
Fe2453     O2465   2.076       .  S
Fe2453     O2454   2.075       .  S
O2454      C2461   1.269       .  A
O2455      C2469   1.270       .  A
O2458      C2470   1.270       .  A
O2459      C2472   1.266       .  A
C2460      O2465   1.268       .  A
C2460      C2643   1.472       .  S
C2461      C2613   1.469       .  S
O2463      C2466   1.270       .  A
O2464      C2466   1.265       .  A
C2466      C2660   1.481       .  S
O2467      C2472   1.265       .  A
O2468      C2470   1.267       .  A
C2469      O2471   1.271       .  A
C2469      C2570   1.482       .  S
C2470      C2583   1.477       .  S
C2472      C2753   1.465       .  S
Fe2473     O2489   2.034       .  S
Fe2473     O2479   2.050       .  S
Fe2473     O2486   2.046       .  S
Fe2473     O2478   2.038       .  S
Fe2473     O2484   1.962       .  S
Fe2474     O2477   2.067       .  S
Fe2474     O2481   2.084       .  S
Fe2474     O2485   2.082       .  S
Fe2474     O2490   2.058       .  S
Fe2474     O2484   1.979       .  S
Fe2475     O2493   2.067       .  S
Fe2475     O2480   2.064       .  S
Fe2475     O2487   2.074       .  S
Fe2475     O2476   2.078       .  S
Fe2475     O2484   1.985       .  S
O2476      C2483   1.268       .  A
O2477      C2491   1.269       .  A
O2478      C2483   1.264       .  A
O2479      C2482   1.266       .  A
O2480      C2492   1.271       .  A
O2481      C2494   1.272       .  A
C2482      O2487   1.269       .  A
C2482      C2560   1.468       .  S
C2483      C3486   1.470       .  S
O2485      C2488   1.269       .  A
O2486      C2488   1.264       .  A
C2488      C2600   1.479       .  S
O2489      C2494   1.264       .  A
O2490      C2492   1.270       .  A
C2491      O2493   1.269       .  A
C2491      C2770   1.485       .  S
C2492      C2730   1.484       .  S
C2494      C2573   1.475       .  S
Fe2495     O2511   2.046       .  S
Fe2495     O2501   2.043       .  S
Fe2495     O2508   2.041       .  S
Fe2495     O2500   2.049       .  S
Fe2495     O2506   1.958       .  S
Fe2496     O2499   2.052       .  S
Fe2496     O2503   2.079       .  S
Fe2496     O2507   2.070       .  S
Fe2496     O2512   2.057       .  S
Fe2496     O2506   1.967       .  S
Fe2497     O2515   2.081       .  S
Fe2497     O2502   2.076       .  S
Fe2497     O2509   2.074       .  S
Fe2497     O2498   2.086       .  S
Fe2497     O2506   1.982       .  S
O2498      C2505   1.272       .  A
O2499      C2513   1.267       .  A
O2500      C2505   1.267       .  A
O2501      C2504   1.266       .  A
O2502      C2514   1.272       .  A
O2503      C2516   1.270       .  A
C2504      O2509   1.269       .  A
C2504      C3479   1.468       .  S
O2507      C2510   1.267       .  A
O2508      C2510   1.263       .  A
C2510      C2580   1.471       .  S
O2511      C2516   1.266       .  A
O2512      C2514   1.270       .  A
C2513      O2515   1.272       .  A
C2513      C2720   1.482       .  S
C2514      C2683   1.488       .  S
C2516      C2633   1.471       .  S
Fe2517     O2533   2.031       .  S
Fe2517     O2523   2.038       .  S
Fe2517     O2530   2.040       .  S
Fe2517     O2522   2.039       .  S
Fe2517     O2528   1.964       .  S
Fe2518     O2521   2.060       .  S
Fe2518     O2525   2.079       .  S
Fe2518     O2529   2.080       .  S
Fe2518     O2534   2.052       .  S
Fe2518     O2528   1.982       .  S
Fe2519     O2537   2.074       .  S
Fe2519     O2524   2.063       .  S
Fe2519     O2531   2.073       .  S
Fe2519     O2520   2.080       .  S
Fe2519     O2528   1.989       .  S
O2520      C2527   1.269       .  A
O2521      C2535   1.270       .  A
O2522      C2527   1.265       .  A
O2523      C2526   1.264       .  A
O2524      C2536   1.269       .  A
O2525      C2538   1.268       .  A
C2526      O2531   1.268       .  A
C2527      C2540   1.472       .  S
O2529      C2532   1.270       .  A
O2530      C2532   1.264       .  A
C2532      C2623   1.478       .  S
O2533      C2538   1.263       .  A
O2534      C2536   1.267       .  A
C2535      O2537   1.272       .  A
C2535      C2693   1.484       .  S
C2536      C2780   1.479       .  S
C2538      C2593   1.473       .  S
C2539      C2540   1.406       .  A
C2539      C2544   1.392       .  A
C2539      F2546   1.359       .  S
C2540      C2541   1.407       .  A
C2541      C2542   1.404       .  A
C2541      F2548   1.357       .  S
C2542      C2543   1.405       .  A
C2542      F3483   1.358       .  S
C2543      C3440   1.467   1_545  S
C2543      C2544   1.404       .  A
C2544      F2545   1.359       .  S
F2547      C3478   1.357       .  S
C2549      C2550   1.405       .  A
C2549      C2554   1.393       .  A
C2549      F2556   1.359       .  S
C2550      C3419   1.470   1_545  S
C2550      C2551   1.406       .  A
C2551      C2552   1.401       .  A
C2551      F3494   1.358       .  S
C2552      C2553   1.405       .  A
C2553      C2554   1.404       .  A
C2554      F2555   1.359       .  S
F2558      C3487   1.358       .  S
C2559      C2560   1.404       .  A
C2559      C2564   1.396       .  A
C2559      F2566   1.359       .  S
C2560      C2561   1.403       .  A
C2561      C2562   1.402       .  A
C2561      F2568   1.358       .  S
C2562      C2563   1.409       .  A
C2563      C2564   1.407       .  A
C2564      F2565   1.358       .  S
C2569      C2570   1.410       .  A
C2569      C2574   1.403       .  A
C2569      F2576   1.358       .  S
C2570      C2571   1.408       .  A
C2571      C2572   1.392       .  A
C2571      F2578   1.358       .  S
C2572      C2573   1.406       .  A
C2572      F2577   1.359       .  S
C2573      C2574   1.406       .  A
C2574      F2575   1.358       .  S
C2579      C2584   1.400   1_455  A
C2579      F2586   1.358       .  S
C2580      C2581   1.405       .  A
C2581      F2588   1.359       .  S
C2582      C2583   1.408       .  A
C2583      C2584   1.409       .  A
C2584      F2585   1.358       .  S
C2589      C2590   1.409       .  A
C2589      F2596   1.359       .  S
C2590      C2591   1.410       .  A
C2591      C2592   1.406   1_655  A
C2591      F2598   1.358       .  S
C2592      F2597   1.358       .  S
C2593      C2594   1.402       .  A
C2594      F2595   1.359       .  S
C2599      C2600   1.407       .  A
C2599      C3540   1.405       .  A
C2599      F2606   1.358       .  S
C2600      C2601   1.405       .  A
C2601      C3538   1.395       .  A
C2601      F2608   1.358       .  S
C2602      C3537   1.395   1_545  A
C2602      C2603   1.410       .  A
C2602      F2607   1.358       .  S
C2603      C2604   1.411       .  A
C2604      C3535   1.405   1_545  A
C2604      F2605   1.358       .  S
C2609      C2610   1.406       .  A
C2609      C2614   1.393       .  A
C2609      F2616   1.358   1_556  S
C2610      C2611   1.409       .  A
C2611      C2612   1.404       .  A
C2611      F2618   1.358       .  S
C2612      C2613   1.405       .  A
C2612      F2617   1.358       .  S
C2613      C2614   1.403       .  A
C2614      F2615   1.359   1_556  S
C2619      C2620   1.409       .  A
C2619      C2624   1.394       .  A
C2619      F2626   1.359       .  S
C2620      C2621   1.408       .  A
C2621      C2622   1.402       .  A
C2621      F2628   1.358       .  S
C2622      C2623   1.407       .  A
C2622      F2627   1.358       .  S
C2623      C2624   1.407       .  A
C2624      F2625   1.359       .  S
C2629      C2630   1.412       .  A
C2629      C2634   1.402   1_545  A
C2629      F2636   1.358       .  S
C2630      C2631   1.411       .  A
C2631      C3568   1.397   1_545  A
C2631      F3574   1.358       .  S
C2632      C3567   1.396       .  A
C2632      C2633   1.402       .  A
C2632      F2637   1.358       .  S
C2633      C3570   1.403       .  A
C2634      C3569   1.403       .  A
C2634      F2635   1.358       .  S
F2638      C3567   1.358       .  S
C2639      C2644   1.394       .  A
C2639      F2646   1.359       .  S
C2640      C2641   1.405       .  A
C2641      C2642   1.402       .  A
C2641      F2648   1.358       .  S
C2642      C2643   1.407       .  A
C2642      F2647   1.358       .  S
C2644      F2645   1.358       .  S
C2649      C2650   1.405       .  A
C2649      C2654   1.403       .  A
C2649      F2656   1.357       .  S
C2651      C2652   1.394       .  A
C2651      F2658   1.359       .  S
C2652      F2657   1.359       .  S
C2653      C2654   1.407       .  A
C2654      F2655   1.358       .  S
C2659      C2660   1.406       .  A
C2659      C2664   1.396       .  A
C2659      F2666   1.358       .  S
C2660      C2661   1.407       .  A
C2661      C2662   1.404       .  A
C2661      F2668   1.358       .  S
C2662      C2663   1.410       .  A
C2663      C2664   1.409       .  A
C2664      F2665   1.358       .  S
C2669      C2670   1.405       .  A
C2669      C2674   1.402       .  A
C2669      F2676   1.358       .  S
C2670      C2671   1.402       .  A
C2671      C2672   1.390       .  A
C2671      F2678   1.358       .  S
C2672      C2673   1.408       .  A
C2672      F2677   1.358       .  S
C2673      C2674   1.411       .  A
C2679      C2680   1.402       .  A
C2679      C2684   1.392       .  A
C2680      C2681   1.405       .  A
C2681      C2682   1.403       .  A
C2681      F2688   1.358       .  S
C2682      C2683   1.412       .  A
C2682      F2687   1.358       .  S
C2683      C2684   1.413       .  A
C2684      F2685   1.358       .  S
C2689      C2690   1.406       .  A
C2689      C2694   1.404       .  A
C2690      C2691   1.406       .  A
C2691      C2692   1.395       .  A
C2691      F2698   1.358       .  S
C2692      C2693   1.408       .  A
C2692      F2697   1.358       .  S
C2693      C2694   1.410       .  A
C2694      F2695   1.358       .  S
C2699      C2700   1.408       .  A
C2699      C2704   1.401       .  A
C2699      F2706   1.358   1_545  S
C2700      C2701   1.409       .  A
C2701      C2702   1.394       .  A
C2701      F2708   1.359       .  S
C2702      C2703   1.405       .  A
C2702      F2707   1.359       .  S
C2703      C2704   1.406       .  A
C2704      F2705   1.358       .  S
C2709      C2710   1.403       .  A
C2709      C2714   1.400       .  A
C2709      F2716   1.358       .  S
C2710      C2711   1.403       .  A
C2711      C2712   1.394       .  A
C2711      F2718   1.359       .  S
C2712      C2713   1.410       .  A
C2712      F2717   1.358       .  S
C2713      C2714   1.412       .  A
C2714      F3651   1.358   1_545  S
F2715      C3650   1.358       .  S
C2719      C2720   1.408       .  A
C2719      C2724   1.393       .  A
C2719      F2726   1.358       .  S
C2720      C2721   1.410       .  A
C2721      C2722   1.405       .  A
C2721      F2728   1.358       .  S
C2722      C2723   1.406       .  A
C2722      F2727   1.358       .  S
C2723      C2724   1.404       .  A
C2724      F2725   1.359       .  S
C2729      C2730   1.412       .  A
C2729      C2734   1.394       .  A
C2729      F2736   1.358       .  S
C2730      C2731   1.412       .  A
C2731      C2732   1.398       .  A
C2731      F3674   1.358       .  S
C2732      C2733   1.403       .  A
C2732      F3673   1.358       .  S
C2733      C2734   1.401       .  A
C2734      F2735   1.358       .  S
F2737      C3668   1.358       .  S
F2738      C3667   1.358       .  S
C2739      C2740   1.404       .  A
C2739      C2744   1.393       .  A
C2739      F2746   1.359       .  S
C2740      C2741   1.405       .  A
C2741      C2742   1.401       .  A
C2741      F2748   1.358       .  S
C2742      C2743   1.406       .  A
C2742      F2747   1.358       .  S
C2743      C2744   1.404       .  A
C2744      F2745   1.358       .  S
C2749      C2750   1.412       .  A
C2749      C2754   1.393       .  A
C2749      F2756   1.358       .  S
C2750      C2751   1.413       .  A
C2751      C2752   1.399       .  A
C2751      F2758   1.358       .  S
C2752      C2753   1.402       .  A
C2752      F2757   1.358       .  S
C2753      C2754   1.400       .  A
C2754      F2755   1.358       .  S
C2759      C2760   1.404       .  A
C2759      C2764   1.405       .  A
C2759      F2766   1.358       .  S
C2760      C2761   1.402       .  A
C2761      C2762   1.395       .  A
C2761      F2768   1.358       .  S
C2762      C2763   1.412       .  A
C2762      F2767   1.358       .  S
C2763      C2764   1.414       .  A
C2764      F2765   1.358       .  S
C2769      C2770   1.408       .  A
C2769      C2774   1.398       .  A
C2769      F2776   1.358       .  S
C2770      C2771   1.411       .  A
C2771      C2772   1.402       .  A
C2771      F2778   1.358       .  S
C2772      C2773   1.405       .  A
C2772      F2777   1.358       .  S
C2773      C2774   1.407       .  A
C2774      F2775   1.359       .  S
C2779      C2780   1.409       .  A
C2779      C2784   1.391       .  A
C2779      F2786   1.358       .  S
C2780      C2781   1.410       .  A
C2781      C2782   1.401       .  A
C2781      F2788   1.358       .  S
C2782      C2783   1.404       .  A
C2782      F2787   1.358       .  S
C2783      C2784   1.403       .  A
C2784      F2785   1.359       .  S
C2789      C2790   1.406       .  A
C2789      C2794   1.404       .  A
C2789      F2796   1.358       .  S
C2790      C2791   1.406       .  A
C2791      C2792   1.393       .  A
C2791      F2798   1.359       .  S
C2792      C2793   1.405       .  A
C2792      F2797   1.359       .  S
C2793      C2794   1.408       .  A
C2794      F2795   1.358       .  S
C2799      C2800   1.403       .  A
C2799      C2804   1.392       .  A
C2799      F2806   1.358       .  S
C2800      C2801   1.406       .  A
C2801      C2802   1.400       .  A
C2801      F2808   1.358       .  S
C2802      C2803   1.404       .  A
C2802      F2807   1.358       .  S
C2803      C2804   1.404       .  A
C2804      F2805   1.359       .  S
Fe2809     O2825   2.047       .  S
Fe2809     O2815   2.038       .  S
Fe2809     O2822   2.034       .  S
Fe2809     O2814   2.045       .  S
Fe2809     O2820   1.965       .  S
Fe2810     O2813   2.055       .  S
Fe2810     O2817   2.083       .  S
Fe2810     O2821   2.075       .  S
Fe2810     O2826   2.064       .  S
Fe2810     O2820   1.978       .  S
Fe2811     O2829   2.059       .  S
Fe2811     O2816   2.078       .  S
Fe2811     O2823   2.086       .  S
Fe2811     O2812   2.065       .  S
Fe2811     O2820   1.992       .  S
O2812      C2819   1.265       .  A
O2813      C2827   1.267       .  A
O2814      C2819   1.265       .  A
O2815      C2818   1.265       .  A
O2816      C2828   1.272       .  A
O2817      C2830   1.270       .  A
C2818      O2823   1.271       .  A
C2818      C3258   1.473       .  S
C2819      C3268   1.466       .  S
O2821      C2824   1.268       .  A
O2822      C2824   1.263       .  A
C2824      C3251   1.468       .  S
O2825      C2830   1.265       .  A
O2826      C2828   1.271       .  A
C2827      O2829   1.267       .  A
C2827      C3218   1.486       .  S
C2828      C3231   1.492       .  S
C2830      C3241   1.480       .  S
Fe2831     O2847   2.041       .  S
Fe2831     O2837   2.043       .  S
Fe2831     O2844   2.043       .  S
Fe2831     O2836   2.046       .  S
Fe2831     O2842   1.966       .  S
Fe2832     O2835   2.047       .  S
Fe2832     O2843   2.065       .  S
Fe2832     O2848   2.061       .  S
Fe2833     O2851   2.074       .  S
Fe2833     O2838   2.064       .  S
Fe2833     O2845   2.071       .  S
Fe2833     O2834   2.078       .  S
Fe2833     O2842   1.990       .  S
O2834      C2841   1.269       .  A
O2835      C2849   1.266       .  A
O2836      C2841   1.266       .  A
O2837      C2840   1.266       .  A
O2839      C2852   1.270       .  A
C2840      O2845   1.268       .  A
C2840      C3208   1.466       .  S
C2841      C3261   1.475       .  S
O2844      C2846   1.264       .  A
C2846      C3201   1.466       .  S
O2847      C2852   1.264       .  A
O2848      C2850   1.270       .  A
C2849      C3168   1.480       .  S
C2850      C3181   1.483       .  S
C2852      C3191   1.475       .  S
Fe2853     O2869   2.040       .  S
Fe2853     O2859   2.043       .  S
Fe2853     O2866   2.047       .  S
Fe2853     O2858   2.040       .  S
Fe2853     O2864   1.965       .  S
Fe2854     O2857   2.046   1_455  S
Fe2854     O2870   2.067   1_455  S
Fe2855     O2873   2.068       .  S
Fe2855     O2860   2.071       .  S
Fe2855     O2867   2.070       .  S
Fe2855     O2856   2.075       .  S
Fe2855     O2864   1.990       .  S
O2856      C2863   1.268       .  A
O2857      C2871   1.267   1_655  A
O2858      C2863   1.264       .  A
O2859      C2862   1.266       .  A
O2861      C2874   1.269       .  A
C2862      O2867   1.268       .  A
C2862      C3271   1.464       .  S
C2863      C3211   1.468       .  S
O2865      C2868   1.270       .  A
O2866      C2868   1.267       .  A
C2868      C3148   1.473       .  S
O2869      C2874   1.262       .  A
O2870      C2872   1.270       .  A
C2871      C3141   1.478   1_455  S
C2872      C3131   1.486       .  S
C2874      C3158   1.479       .  S
Fe2875     O2891   2.039       .  S
Fe2875     O2881   2.041       .  S
Fe2875     O2888   2.039       .  S
Fe2875     O2880   2.039       .  S
Fe2875     O2886   1.968       .  S
Fe2876     O3347   2.065   1_554  S
Fe2876     O2883   2.077       .  S
Fe2876     O2887   2.087       .  S
Fe2876     O3360   2.055   1_554  S
Fe2876     O2886   1.980       .  S
Fe2877     O2895   2.065       .  S
Fe2877     O2882   2.076       .  S
Fe2877     O2889   2.084       .  S
Fe2877     O2878   2.077       .  S
Fe2877     O3354   1.989       .  S
O2878      C2885   1.268       .  A
O2879     Fe3344   2.065       .  S
O2879      C2893   1.269       .  A
O2880      C3353   1.264   1_554  A
O2881      C3352   1.265   1_554  A
O2882      C2894   1.273       .  A
O2883      C2896   1.270       .  A
C2884      O3349   1.265       .  A
C2884      O2889   1.271       .  A
C2884      C3118   1.473       .  S
C2885      O3348   1.264       .  A
C2885      C3108   1.470       .  S
O2886     Fe3345   1.989   1_554  S
O2887      C2890   1.270       .  A
O2888      C2890   1.263       .  A
C2890      C3228   1.474       .  S
O2891      C2896   1.264       .  A
O2892     Fe3344   2.055       .  S
O2892      C2894   1.269       .  A
C2893      O2895   1.269       .  A
C2893      C3098   1.486       .  S
C2894      C3088   1.482       .  S
C2896      C3171   1.474       .  S
Fe2897     O2913   2.040       .  S
Fe2897     O2903   2.042       .  S
Fe2897     O2910   2.039       .  S
Fe2897     O2902   2.048       .  S
Fe2897     O2908   1.964       .  S
Fe2898     O3369   2.040   1_554  S
Fe2898     O2905   2.071       .  S
Fe2898     O2909   2.071       .  S
Fe2898     O3382   2.055   1_554  S
Fe2898     O2908   1.978       .  S
Fe2899     O2917   2.079       .  S
Fe2899     O2904   2.082       .  S
Fe2899     O2911   2.082       .  S
Fe2899     O2900   2.077       .  S
Fe2899     O3376   1.990       .  S
O2900      C2907   1.271       .  A
O2901     Fe3366   2.040       .  S
O2901      C2915   1.266       .  A
O2902      C3375   1.267   1_554  A
O2903      C3374   1.265   1_554  A
O2904      C2916   1.272       .  A
O2905      C2918   1.267       .  A
C2906      O3371   1.265       .  A
C2906      O2911   1.270       .  A
C2906      C3078   1.477       .  S
C2907      O3370   1.267       .  A
C2907      C3121   1.473       .  S
O2908     Fe3367   1.990   1_554  S
O2909      C2912   1.267       .  A
O2910      C2912   1.264       .  A
C2912      C3178   1.468       .  S
O2913      C2918   1.264       .  A
O2914     Fe3366   2.055       .  S
O2914      C2916   1.268       .  A
C2915      O2917   1.271       .  A
C2915      C3058   1.481       .  S
C2916      C3071   1.487       .  S
C2918      C3138   1.467       .  S
Fe2919     O2935   2.047       .  S
Fe2919     O2925   2.047       .  S
Fe2919     O2932   2.045       .  S
Fe2919     O2924   2.047       .  S
Fe2919     O2930   1.962       .  S
Fe2920     O3391   2.061   1_554  S
Fe2920     O2927   2.066       .  S
Fe2920     O2931   2.083       .  S
Fe2920     O3404   2.049   1_554  S
Fe2920     O2930   1.975       .  S
Fe2921     O2939   2.070       .  S
Fe2921     O2926   2.070       .  S
Fe2921     O2933   2.077       .  S
Fe2921     O2922   2.075       .  S
Fe2921     O3398   1.985       .  S
O2922      C2929   1.269       .  A
O2923     Fe3388   2.061       .  S
O2923      C2937   1.270       .  A
O2924      C3397   1.267   1_554  A
O2925      C3396   1.266   1_554  A
O2926      C2938   1.270       .  A
O2927      C2940   1.266       .  A
C2928      O3393   1.266       .  A
C2928      O2933   1.269       .  A
C2928      C3111   1.472       .  S
C2929      O3392   1.267       .  A
C2929      C3081   1.468       .  S
O2930     Fe3389   1.985   1_554  S
O2931      C2934   1.271       .  A
O2932      C2934   1.265       .  A
C2934      C3128   1.481       .  S
O2935      C2940   1.265       .  A
O2936     Fe3388   2.049       .  S
O2936      C2938   1.267       .  A
C2937      O2939   1.271       .  A
C2937      C3038   1.483       .  S
C2938      C3051   1.478       .  S
C2940      C3221   1.465       .  S
Fe2941     O2957   2.034       .  S
Fe2941     O2947   2.050       .  S
Fe2941     O2954   2.047       .  S
Fe2941     O2946   2.038       .  S
Fe2941     O2952   1.962       .  S
Fe2942     O2945   2.067       .  S
Fe2942     O2949   2.084       .  S
Fe2942     O2953   2.082       .  S
Fe2942     O2958   2.058       .  S
Fe2942     O2952   1.979       .  S
Fe2943     O2961   2.067       .  S
Fe2943     O2948   2.065       .  S
Fe2943     O2955   2.074       .  S
Fe2943     O2944   2.078       .  S
Fe2943     O2952   1.985       .  S
O2944      C2951   1.268       .  A
O2945      C2959   1.269       .  A
O2946      C2951   1.264       .  A
O2947      C2950   1.266       .  A
O2948      C2960   1.271       .  A
O2949      C2962   1.272       .  A
C2950      O2955   1.269       .  A
C2950      C3028   1.468       .  S
O2953      C2956   1.269       .  A
O2954      C2956   1.264       .  A
C2956      C3068   1.480       .  S
O2957      C2962   1.264       .  A
O2958      C2960   1.270       .  A
C2959      O2961   1.269       .  A
C2959      C3238   1.485       .  S
C2960      C3198   1.484       .  S
C2962      C3041   1.475       .  S
Fe2963     O2979   2.047       .  S
Fe2963     O2969   2.043       .  S
Fe2963     O2976   2.041       .  S
Fe2963     O2968   2.049       .  S
Fe2963     O2974   1.958       .  S
Fe2964     O2967   2.051       .  S
Fe2964     O2971   2.080       .  S
Fe2964     O2975   2.071       .  S
Fe2964     O2980   2.058       .  S
Fe2964     O2974   1.967       .  S
Fe2965     O2983   2.081       .  S
Fe2965     O2970   2.075       .  S
Fe2965     O2977   2.073       .  S
Fe2965     O2966   2.086       .  S
Fe2965     O2974   1.982       .  S
O2966      C2973   1.272       .  A
O2967      C2981   1.267       .  A
O2968      C2973   1.267       .  A
O2969      C2972   1.266       .  A
O2970      C2982   1.272       .  A
O2971      C2984   1.270       .  A
C2972      O2977   1.269       .  A
O2975      C2978   1.267       .  A
O2976      C2978   1.263       .  A
C2978      C3048   1.471       .  S
O2979      C2984   1.266       .  A
O2980      C2982   1.270       .  A
C2981      O2983   1.272       .  A
C2981      C3188   1.482       .  S
C2982      C3151   1.488       .  S
C2984      C3101   1.471       .  S
Fe2985     O3001   2.031       .  S
Fe2985     O2991   2.038       .  S
Fe2985     O2998   2.040       .  S
Fe2985     O2990   2.039       .  S
Fe2985     O2996   1.964       .  S
Fe2986     O2989   2.060       .  S
Fe2986     O2993   2.079       .  S
Fe2986     O2997   2.081       .  S
Fe2986     O3002   2.052       .  S
Fe2986     O2996   1.982       .  S
Fe2987     O3005   2.074       .  S
Fe2987     O2992   2.063       .  S
Fe2987     O2999   2.073       .  S
Fe2987     O2988   2.081       .  S
Fe2987     O2996   1.989       .  S
O2988      C2995   1.270       .  A
O2989      C3003   1.270       .  A
O2990      C2995   1.265       .  A
O2991      C2994   1.264       .  A
O2992      C3004   1.269       .  A
O2993      C3006   1.268       .  A
C2994      O2999   1.268       .  A
C2995      C3008   1.473       .  S
O2997      C3000   1.270       .  A
O2998      C3000   1.264       .  A
C3000      C3091   1.478       .  S
O3001      C3006   1.263       .  A
O3002      C3004   1.267       .  A
C3003      O3005   1.272       .  A
C3003      C3161   1.484       .  S
C3004      C3248   1.479       .  S
C3006      C3061   1.473       .  S
C3007      C3008   1.406       .  A
C3007      C3012   1.392       .  A
C3007      F3014   1.359       .  S
C3008      C3009   1.407       .  A
C3009      C3010   1.404       .  A
C3009      F3016   1.357       .  S
C3010      C3011   1.405       .  A
C3011      C3012   1.404       .  A
C3012      F3013   1.359       .  S
C3017      C3018   1.405       .  A
C3017      C3022   1.393       .  A
C3017      F3024   1.359       .  S
C3018      C3019   1.406       .  A
C3019      C3020   1.401       .  A
C3020      C3021   1.405       .  A
C3021      C3022   1.404       .  A
C3022      F3023   1.359       .  S
C3027      C3028   1.404       .  A
C3027      C3032   1.396       .  A
C3027      F3034   1.359       .  S
C3028      C3029   1.403       .  A
C3029      C3030   1.402       .  A
C3029      F3036   1.358       .  S
C3030      C3031   1.409       .  A
C3031      C3032   1.407       .  A
C3032      F3033   1.358       .  S
C3037      C3038   1.410       .  A
C3037      C3042   1.403       .  A
C3037      F3044   1.358       .  S
C3038      C3039   1.409       .  A
C3039      C3040   1.393       .  A
C3039      F3046   1.358       .  S
C3040      C3041   1.405       .  A
C3040      F3045   1.359       .  S
C3041      C3042   1.406       .  A
C3042      F3043   1.358       .  S
C3047      C3052   1.400   1_455  A
C3047      F3054   1.358       .  S
C3048      C3049   1.405       .  A
C3049      F3056   1.359       .  S
C3050      C3051   1.408       .  A
C3051      C3052   1.409       .  A
C3052      F3053   1.358       .  S
C3057      C3058   1.409       .  A
C3057      F3064   1.359       .  S
C3058      C3059   1.410       .  A
C3059      C3060   1.406   1_655  A
C3059      F3066   1.358       .  S
C3060      F3065   1.358       .  S
C3061      C3062   1.402       .  A
C3062      F3063   1.359       .  S
C3067      C3068   1.407       .  A
C3067      F3074   1.358       .  S
C3068      C3069   1.405       .  A
C3069      F3076   1.358       .  S
C3070      C3071   1.410       .  A
C3070      F3075   1.358       .  S
C3071      C3072   1.411       .  A
C3072      F3073   1.358       .  S
C3077      C3078   1.406       .  A
C3077      C3082   1.393       .  A
C3077      F3084   1.358       .  S
C3078      C3079   1.409       .  A
C3079      C3080   1.404       .  A
C3079      F3086   1.358       .  S
C3080      C3081   1.405       .  A
C3080      F3085   1.358       .  S
C3081      C3082   1.403       .  A
C3082      F3083   1.359       .  S
C3087      C3088   1.409       .  A
C3087      C3092   1.394       .  A
C3087      F3094   1.359       .  S
C3088      C3089   1.408       .  A
C3089      C3090   1.402       .  A
C3089      F3096   1.358       .  S
C3090      C3091   1.407       .  A
C3090      F3095   1.358       .  S
C3091      C3092   1.407       .  A
C3092      F3093   1.359       .  S
C3097      C3098   1.412       .  A
C3097      C3102   1.401       .  A
C3097      F3104   1.358       .  S
C3098      C3099   1.411       .  A
C3100      C3101   1.402       .  A
C3100      F3105   1.358       .  S
C3102      F3103   1.358       .  S
C3107      C3576   1.405       .  A
C3107      C3112   1.394       .  A
C3107      F3114   1.359   1_556  S
C3108      C3575   1.405       .  A
C3108      C3109   1.405       .  A
C3109      C3110   1.402       .  A
C3109      F3116   1.358       .  S
C3110      C3111   1.407       .  A
C3110      F3115   1.358       .  S
C3111      C3580   1.405       .  A
C3112      C3579   1.405       .  A
C3112      F3113   1.358   1_556  S
C3117      C3118   1.405       .  A
C3117      C3122   1.403       .  A
C3117      F3124   1.357       .  S
C3118      C3587   1.406       .  A
C3119      C3586   1.406       .  A
C3119      C3120   1.394       .  A
C3119      F3126   1.359   1_556  S
C3120      C3589   1.405       .  A
C3120      F3125   1.359   1_556  S
C3121      C3588   1.405       .  A
C3121      C3122   1.407       .  A
C3122      F3123   1.358       .  S
C3127      C3128   1.406       .  A
C3127      C3132   1.396       .  A
C3127      F3134   1.358       .  S
C3128      C3129   1.407       .  A
C3129      C3130   1.403       .  A
C3129      F3136   1.358       .  S
C3130      C3131   1.410       .  A
C3131      C3132   1.409       .  A
C3132      F3133   1.358       .  S
C3137      C3138   1.405       .  A
C3137      C3142   1.402       .  A
C3137      F3144   1.358       .  S
C3138      C3139   1.402       .  A
C3139      C3140   1.390       .  A
C3139      F3146   1.358       .  S
C3140      C3141   1.408       .  A
C3140      F3145   1.358       .  S
C3141      C3142   1.411       .  A
C3147      C3148   1.402       .  A
C3147      C3152   1.392       .  A
C3148      C3149   1.405       .  A
C3149      C3150   1.403       .  A
C3149      F3156   1.358       .  S
C3150      C3151   1.412       .  A
C3150      F3155   1.358       .  S
C3151      C3152   1.413       .  A
C3152      F3153   1.358       .  S
C3157      C3158   1.407       .  A
C3157      C3162   1.404       .  A
C3158      C3159   1.406       .  A
C3159      C3160   1.396       .  A
C3159      F3166   1.358       .  S
C3160      C3161   1.409       .  A
C3160      F3165   1.358       .  S
C3161      C3162   1.410       .  A
C3162      F3163   1.358       .  S
C3167      C3168   1.408       .  A
C3167      C3172   1.401       .  A
C3167      F3174   1.358       .  S
C3168      C3169   1.409       .  A
C3169      C3170   1.394       .  A
C3169      F3176   1.359       .  S
C3170      C3171   1.405       .  A
C3170      F3175   1.359       .  S
C3171      C3172   1.406       .  A
C3172      F3173   1.358       .  S
C3177      C3178   1.403       .  A
C3177      C3182   1.400       .  A
C3177      F3184   1.358       .  S
C3178      C3179   1.403       .  A
C3179      C3180   1.394       .  A
C3179      F3186   1.359       .  S
C3180      C3181   1.410       .  A
C3180      F3185   1.358       .  S
C3181      C3182   1.412       .  A
C3187      C3188   1.408       .  A
C3187      C3192   1.393       .  A
C3187      F3194   1.358       .  S
C3188      C3189   1.410       .  A
C3189      C3190   1.405       .  A
C3189      F3196   1.358       .  S
C3190      C3191   1.406       .  A
C3190      F3195   1.358       .  S
C3191      C3192   1.404       .  A
C3192      F3193   1.359       .  S
C3197      C3198   1.412       .  A
C3197      C3202   1.394       .  A
C3197      F3204   1.358       .  S
C3198      C3199   1.412       .  A
C3199      C3200   1.398       .  A
C3200      C3201   1.403       .  A
C3201      C3202   1.401       .  A
C3202      F3203   1.358       .  S
C3207      C3208   1.404       .  A
C3207      C3212   1.393       .  A
C3207      F3214   1.359       .  S
C3208      C3209   1.405       .  A
C3209      C3210   1.401       .  A
C3209      F3216   1.358       .  S
C3210      C3211   1.406       .  A
C3210      F3215   1.358       .  S
C3211      C3212   1.404       .  A
C3212      F3213   1.358       .  S
C3217      C3218   1.412       .  A
C3217      C3222   1.393       .  A
C3217      F3224   1.358       .  S
C3218      C3219   1.414       .  A
C3219      C3220   1.399       .  A
C3219      F3226   1.358       .  S
C3220      C3221   1.402       .  A
C3220      F3225   1.358       .  S
C3221      C3222   1.400       .  A
C3222      F3223   1.358       .  S
C3227      C3228   1.404       .  A
C3227      C3232   1.405       .  A
C3227      F3234   1.358       .  S
C3228      C3229   1.402       .  A
C3229      C3230   1.395       .  A
C3229      F3236   1.358       .  S
C3230      C3231   1.412       .  A
C3230      F3235   1.358       .  S
C3231      C3232   1.414       .  A
C3232      F3233   1.358       .  S
C3237      C3238   1.408       .  A
C3237      C3242   1.398       .  A
C3237      F3244   1.358       .  S
C3238      C3239   1.410       .  A
C3239      C3240   1.403       .  A
C3239      F3246   1.358       .  S
C3240      C3241   1.405       .  A
C3240      F3245   1.358       .  S
C3241      C3242   1.407       .  A
C3242      F3243   1.359       .  S
C3247      C3248   1.409       .  A
C3247      C3252   1.391       .  A
C3247      F3254   1.358       .  S
C3248      C3249   1.410       .  A
C3249      C3250   1.401       .  A
C3249      F3256   1.358       .  S
C3250      C3251   1.404       .  A
C3250      F3255   1.358       .  S
C3251      C3252   1.403       .  A
C3252      F3253   1.359       .  S
C3257      C3258   1.406       .  A
C3257      C3262   1.404       .  A
C3257      F3264   1.358       .  S
C3258      C3259   1.406       .  A
C3259      C3260   1.393       .  A
C3259      F3266   1.359       .  S
C3260      C3261   1.405       .  A
C3260      F3265   1.359       .  S
C3261      C3262   1.408       .  A
C3262      F3263   1.358       .  S
C3267      C3268   1.403       .  A
C3267      C3272   1.392       .  A
C3267      F3274   1.358       .  S
C3268      C3269   1.406       .  A
C3269      C3270   1.400       .  A
C3269      F3276   1.358       .  S
C3270      C3271   1.404       .  A
C3270      F3275   1.358       .  S
C3271      C3272   1.404       .  A
C3272      F3273   1.359       .  S
Fe3277     O3293   2.047       .  S
Fe3277     O3283   2.038       .  S
Fe3277     O3290   2.034       .  S
Fe3277     O3282   2.045       .  S
Fe3277     O3288   1.965       .  S
Fe3278     O3281   2.055       .  S
Fe3278     O3285   2.083       .  S
Fe3278     O3289   2.075       .  S
Fe3278     O3294   2.064       .  S
Fe3278     O3288   1.978       .  S
Fe3279     O3297   2.058       .  S
Fe3279     O3284   2.078       .  S
Fe3279     O3291   2.086       .  S
Fe3279     O3280   2.065       .  S
Fe3279     O3288   1.992       .  S
O3280      C3287   1.265       .  A
O3281      C3295   1.267       .  A
O3282      C3287   1.265       .  A
O3283      C3286   1.265       .  A
O3284      C3296   1.272       .  A
O3285      C3298   1.270       .  A
C3286      O3291   1.271       .  A
C3286      C3726   1.474       .  S
C3287      C3736   1.466       .  S
O3289      C3292   1.268       .  A
O3290      C3292   1.263       .  A
C3292      C3719   1.468       .  S
O3293      C3298   1.265       .  A
O3294      C3296   1.271       .  A
C3295      O3297   1.267       .  A
C3295      C3686   1.486       .  S
C3296      C3699   1.492       .  S
C3298      C3709   1.480       .  S
Fe3299     O3315   2.041       .  S
Fe3299     O3305   2.043       .  S
Fe3299     O3312   2.043       .  S
Fe3299     O3304   2.046       .  S
Fe3299     O3310   1.966       .  S
Fe3300     O3303   2.047       .  S
Fe3300     O3311   2.065       .  S
Fe3300     O3316   2.061       .  S
Fe3301     O3319   2.074       .  S
Fe3301     O3306   2.064       .  S
Fe3301     O3313   2.071       .  S
Fe3301     O3302   2.078       .  S
Fe3301     O3310   1.990       .  S
O3302      C3309   1.269       .  A
O3303      C3317   1.266       .  A
O3304      C3309   1.266       .  A
O3305      C3308   1.266       .  A
O3307      C3320   1.270       .  A
C3308      O3313   1.268       .  A
C3308      C3676   1.466       .  S
C3309      C3729   1.475       .  S
O3312      C3314   1.264       .  A
C3314      C3669   1.466       .  S
O3315      C3320   1.264       .  A
O3316      C3318   1.270       .  A
C3317      C3636   1.480       .  S
C3318      C3649   1.484       .  S
C3320      C3659   1.475       .  S
Fe3321     O3337   2.040       .  S
Fe3321     O3327   2.043       .  S
Fe3321     O3334   2.047       .  S
Fe3321     O3326   2.040       .  S
Fe3321     O3332   1.965       .  S
Fe3322     O3325   2.047   1_455  S
Fe3322     O3338   2.067   1_455  S
Fe3323     O3341   2.068       .  S
Fe3323     O3328   2.071       .  S
Fe3323     O3335   2.070       .  S
Fe3323     O3324   2.075       .  S
Fe3323     O3332   1.990       .  S
O3324      C3331   1.268       .  A
O3325      C3339   1.267   1_655  A
O3326      C3331   1.264       .  A
O3327      C3330   1.266       .  A
O3329      C3342   1.269       .  A
C3330      O3335   1.268       .  A
C3330      C3739   1.464       .  S
C3331      C3679   1.468       .  S
O3333      C3336   1.269       .  A
O3334      C3336   1.267       .  A
C3336      C3616   1.473       .  S
O3337      C3342   1.262       .  A
O3338      C3340   1.270       .  A
C3339      C3609   1.478   1_455  S
C3340      C3599   1.486       .  S
C3342      C3626   1.479       .  S
Fe3343     O3359   2.039       .  S
Fe3343     O3349   2.041       .  S
Fe3343     O3356   2.039       .  S
Fe3343     O3348   2.039       .  S
Fe3343     O3354   1.968       .  S
Fe3344     O3351   2.077       .  S
Fe3344     O3355   2.087       .  S
Fe3344     O3354   1.980       .  S
Fe3345     O3363   2.065       .  S
Fe3345     O3350   2.076       .  S
Fe3345     O3357   2.084       .  S
Fe3345     O3346   2.077       .  S
O3346      C3353   1.268       .  A
O3347      C3361   1.269       .  A
O3350      C3362   1.273       .  A
O3351      C3364   1.270       .  A
C3352      O3357   1.271       .  A
C3352      C3586   1.473       .  S
C3353      C3576   1.470       .  S
O3355      C3358   1.270       .  A
O3356      C3358   1.263       .  A
C3358      C3696   1.474       .  S
O3359      C3364   1.264       .  A
O3360      C3362   1.269       .  A
C3361      O3363   1.269       .  A
C3361      C3566   1.486       .  S
C3362      C3556   1.481       .  S
C3364      C3639   1.474       .  S
Fe3365     O3381   2.040       .  S
Fe3365     O3371   2.042       .  S
Fe3365     O3378   2.039       .  S
Fe3365     O3370   2.048       .  S
Fe3365     O3376   1.964       .  S
Fe3366     O3373   2.071       .  S
Fe3366     O3377   2.071       .  S
Fe3366     O3376   1.978       .  S
Fe3367     O3385   2.080       .  S
Fe3367     O3372   2.081       .  S
Fe3367     O3379   2.082       .  S
Fe3367     O3368   2.077       .  S
O3368      C3375   1.271       .  A
O3369      C3383   1.266       .  A
O3372      C3384   1.272       .  A
O3373      C3386   1.267       .  A
C3374      O3379   1.270       .  A
C3374      C3546   1.477       .  S
C3375      C3589   1.474       .  S
O3377      C3380   1.267       .  A
O3378      C3380   1.264       .  A
C3380      C3646   1.468       .  S
O3381      C3386   1.264       .  A
O3382      C3384   1.268       .  A
C3383      O3385   1.271       .  A
C3383      C3526   1.481       .  S
C3384      C3539   1.487       .  S
C3386      C3606   1.467       .  S
Fe3387     O3403   2.047       .  S
Fe3387     O3393   2.047       .  S
Fe3387     O3400   2.045       .  S
Fe3387     O3392   2.047       .  S
Fe3387     O3398   1.962       .  S
Fe3388     O3395   2.065       .  S
Fe3388     O3399   2.083       .  S
Fe3388     O3398   1.975       .  S
Fe3389     O3407   2.070       .  S
Fe3389     O3394   2.070       .  S
Fe3389     O3401   2.077       .  S
Fe3389     O3390   2.075       .  S
O3390      C3397   1.269       .  A
O3391      C3405   1.270       .  A
O3394      C3406   1.270       .  A
O3395      C3408   1.266       .  A
C3396      O3401   1.269       .  A
C3396      C3579   1.472       .  S
C3397      C3549   1.468       .  S
O3399      C3402   1.270       .  A
O3400      C3402   1.265       .  A
C3402      C3596   1.481       .  S
O3403      C3408   1.265       .  A
O3404      C3406   1.267       .  A
C3405      O3407   1.271       .  A
C3405      C3506   1.483       .  S
C3406      C3519   1.478       .  S
C3408      C3689   1.465       .  S
Fe3409     O3425   2.034       .  S
Fe3409     O3415   2.050       .  S
Fe3409     O3422   2.047       .  S
Fe3409     O3414   2.038       .  S
Fe3409     O3420   1.962       .  S
Fe3410     O3413   2.067       .  S
Fe3410     O3417   2.084       .  S
Fe3410     O3421   2.082       .  S
Fe3410     O3426   2.058       .  S
Fe3410     O3420   1.979       .  S
Fe3411     O3429   2.067       .  S
Fe3411     O3416   2.064       .  S
Fe3411     O3423   2.074       .  S
Fe3411     O3412   2.078       .  S
Fe3411     O3420   1.985       .  S
O3412      C3419   1.268       .  A
O3413      C3427   1.269       .  A
O3414      C3419   1.264       .  A
O3415      C3418   1.266       .  A
O3416      C3428   1.271       .  A
O3417      C3430   1.272       .  A
C3418      O3423   1.269       .  A
C3418      C3496   1.468       .  S
O3421      C3424   1.269       .  A
O3422      C3424   1.264       .  A
C3424      C3536   1.480       .  S
O3425      C3430   1.264       .  A
O3426      C3428   1.270       .  A
C3427      O3429   1.269       .  A
C3427      C3706   1.485       .  S
C3428      C3666   1.484       .  S
C3430      C3509   1.475       .  S
Fe3431     O3447   2.047       .  S
Fe3431     O3437   2.043       .  S
Fe3431     O3444   2.041       .  S
Fe3431     O3436   2.049       .  S
Fe3431     O3442   1.958       .  S
Fe3432     O3435   2.051       .  S
Fe3432     O3439   2.080       .  S
Fe3432     O3443   2.071       .  S
Fe3432     O3448   2.058       .  S
Fe3432     O3442   1.967       .  S
Fe3433     O3451   2.081       .  S
Fe3433     O3438   2.075       .  S
Fe3433     O3445   2.073       .  S
Fe3433     O3434   2.086       .  S
Fe3433     O3442   1.982       .  S
O3434      C3441   1.272       .  A
O3435      C3449   1.267       .  A
O3436      C3441   1.267       .  A
O3437      C3440   1.266       .  A
O3438      C3450   1.272       .  A
O3439      C3452   1.270       .  A
C3440      O3445   1.269       .  A
O3443      C3446   1.267       .  A
O3444      C3446   1.263       .  A
C3446      C3516   1.472       .  S
O3447      C3452   1.266       .  A
O3448      C3450   1.270       .  A
C3449      O3451   1.272       .  A
C3449      C3656   1.482       .  S
C3450      C3619   1.488       .  S
C3452      C3569   1.471       .  S
Fe3453     O3469   2.031       .  S
Fe3453     O3459   2.038       .  S
Fe3453     O3466   2.040       .  S
Fe3453     O3458   2.039       .  S
Fe3453     O3464   1.965       .  S
Fe3454     O3457   2.060       .  S
Fe3454     O3461   2.079       .  S
Fe3454     O3465   2.081       .  S
Fe3454     O3470   2.052       .  S
Fe3454     O3464   1.982       .  S
Fe3455     O3473   2.074       .  S
Fe3455     O3460   2.063       .  S
Fe3455     O3467   2.073       .  S
Fe3455     O3456   2.081       .  S
Fe3455     O3464   1.989       .  S
O3456      C3463   1.270       .  A
O3457      C3471   1.270       .  A
O3458      C3463   1.265       .  A
O3459      C3462   1.264       .  A
O3460      C3472   1.269       .  A
O3461      C3474   1.268       .  A
C3462      O3467   1.268       .  A
C3463      C3476   1.473       .  S
O3465      C3468   1.270       .  A
O3466      C3468   1.264       .  A
C3468      C3559   1.478       .  S
O3469      C3474   1.263       .  A
O3470      C3472   1.267       .  A
C3471      O3473   1.272       .  A
C3471      C3629   1.484       .  S
C3472      C3716   1.479       .  S
C3474      C3529   1.473       .  S
C3475      C3476   1.406       .  A
C3475      C3480   1.392       .  A
C3475      F3482   1.359       .  S
C3476      C3477   1.407       .  A
C3477      C3478   1.404       .  A
C3477      F3484   1.357       .  S
C3478      C3479   1.405       .  A
C3479      C3480   1.404       .  A
C3480      F3481   1.359       .  S
C3485      C3486   1.405       .  A
C3485      C3490   1.393       .  A
C3485      F3492   1.359       .  S
C3486      C3487   1.406       .  A
C3487      C3488   1.401       .  A
C3488      C3489   1.405       .  A
C3489      C3490   1.404       .  A
C3490      F3491   1.359       .  S
C3495      C3496   1.404       .  A
C3495      C3500   1.396       .  A
C3495      F3502   1.359       .  S
C3496      C3497   1.403       .  A
C3497      C3498   1.402       .  A
C3497      F3504   1.358       .  S
C3498      C3499   1.409       .  A
C3499      C3500   1.407       .  A
C3500      F3501   1.358       .  S
C3505      C3506   1.410       .  A
C3505      C3510   1.403       .  A
C3505      F3512   1.358       .  S
C3506      C3507   1.409       .  A
C3507      C3508   1.393       .  A
C3507      F3514   1.358       .  S
C3508      C3509   1.405       .  A
C3508      F3513   1.359       .  S
C3509      C3510   1.406       .  A
C3510      F3511   1.358       .  S
C3515      C3520   1.400   1_455  A
C3515      F3522   1.358       .  S
C3516      C3517   1.405       .  A
C3517      F3524   1.359       .  S
C3518      C3519   1.408       .  A
C3519      C3520   1.409       .  A
C3520      F3521   1.358       .  S
C3525      C3526   1.409       .  A
C3525      F3532   1.359       .  S
C3526      C3527   1.410       .  A
C3527      C3528   1.406   1_655  A
C3527      F3534   1.358       .  S
C3528      F3533   1.358       .  S
C3529      C3530   1.402       .  A
C3530      F3531   1.359       .  S
C3535      C3536   1.407       .  A
C3535      F3542   1.358       .  S
C3536      C3537   1.405       .  A
C3537      F3544   1.358       .  S
C3538      C3539   1.410       .  A
C3538      F3543   1.358       .  S
C3539      C3540   1.411       .  A
C3540      F3541   1.358       .  S
C3545      C3546   1.406       .  A
C3545      C3550   1.393       .  A
C3545      F3552   1.358   1_556  S
C3546      C3547   1.409       .  A
C3547      C3548   1.404       .  A
C3547      F3554   1.358       .  S
C3548      C3549   1.405       .  A
C3548      F3553   1.358       .  S
C3549      C3550   1.403       .  A
C3550      F3551   1.359   1_556  S
C3555      C3556   1.409       .  A
C3555      C3560   1.394       .  A
C3555      F3562   1.359       .  S
C3556      C3557   1.408       .  A
C3557      C3558   1.402       .  A
C3557      F3564   1.358       .  S
C3558      C3559   1.407       .  A
C3558      F3563   1.358       .  S
C3559      C3560   1.407       .  A
C3560      F3561   1.359       .  S
C3565      C3566   1.412       .  A
C3565      C3570   1.401       .  A
C3565      F3572   1.358       .  S
C3566      C3567   1.411       .  A
C3568      C3569   1.402       .  A
C3568      F3573   1.358       .  S
C3570      F3571   1.358       .  S
C3575      C3580   1.394       .  A
C3575      F3582   1.359       .  S
C3576      C3577   1.405       .  A
C3577      C3578   1.402       .  A
C3577      F3584   1.358       .  S
C3578      C3579   1.407       .  A
C3578      F3583   1.358       .  S
C3580      F3581   1.358       .  S
C3585      C3586   1.405       .  A
C3585      C3590   1.403       .  A
C3585      F3592   1.357       .  S
C3587      C3588   1.394       .  A
C3587      F3594   1.359       .  S
C3588      F3593   1.359       .  S
C3589      C3590   1.407       .  A
C3590      F3591   1.358       .  S
C3595      C3596   1.406       .  A
C3595      C3600   1.396       .  A
C3595      F3602   1.358       .  S
C3596      C3597   1.407       .  A
C3597      C3598   1.403       .  A
C3597      F3604   1.358       .  S
C3598      C3599   1.410       .  A
C3599      C3600   1.409       .  A
C3600      F3601   1.358       .  S
C3605      C3606   1.405       .  A
C3605      C3610   1.402       .  A
C3605      F3612   1.358       .  S
C3606      C3607   1.402       .  A
C3607      C3608   1.390       .  A
C3607      F3614   1.358       .  S
C3608      C3609   1.408       .  A
C3608      F3613   1.358       .  S
C3609      C3610   1.411       .  A
C3615      C3616   1.402       .  A
C3615      C3620   1.392       .  A
C3616      C3617   1.405       .  A
C3617      C3618   1.403       .  A
C3617      F3624   1.358       .  S
C3618      C3619   1.412       .  A
C3618      F3623   1.358       .  S
C3619      C3620   1.413       .  A
C3620      F3621   1.358       .  S
C3625      C3626   1.407       .  A
C3625      C3630   1.404       .  A
C3626      C3627   1.406       .  A
C3627      C3628   1.396       .  A
C3627      F3634   1.358       .  S
C3628      C3629   1.409       .  A
C3628      F3633   1.358       .  S
C3629      C3630   1.410       .  A
C3630      F3631   1.358       .  S
C3635      C3636   1.408       .  A
C3635      C3640   1.401       .  A
C3635      F3642   1.358       .  S
C3636      C3637   1.409       .  A
C3637      C3638   1.394       .  A
C3637      F3644   1.359       .  S
C3638      C3639   1.405       .  A
C3638      F3643   1.359       .  S
C3639      C3640   1.406       .  A
C3640      F3641   1.358       .  S
C3645      C3646   1.403       .  A
C3645      C3650   1.400       .  A
C3645      F3652   1.358       .  S
C3646      C3647   1.403       .  A
C3647      C3648   1.394       .  A
C3647      F3654   1.359       .  S
C3648      C3649   1.410       .  A
C3648      F3653   1.358       .  S
C3649      C3650   1.412       .  A
C3655      C3656   1.408       .  A
C3655      C3660   1.393       .  A
C3655      F3662   1.358       .  S
C3656      C3657   1.410       .  A
C3657      C3658   1.405       .  A
C3657      F3664   1.358       .  S
C3658      C3659   1.406       .  A
C3658      F3663   1.358       .  S
C3659      C3660   1.404       .  A
C3660      F3661   1.359       .  S
C3665      C3666   1.412       .  A
C3665      C3670   1.394       .  A
C3665      F3672   1.358       .  S
C3666      C3667   1.412       .  A
C3667      C3668   1.398       .  A
C3668      C3669   1.403       .  A
C3669      C3670   1.401       .  A
C3670      F3671   1.358       .  S
C3675      C3676   1.404       .  A
C3675      C3680   1.393       .  A
C3675      F3682   1.359       .  S
C3676      C3677   1.405       .  A
C3677      C3678   1.401       .  A
C3677      F3684   1.358       .  S
C3678      C3679   1.406       .  A
C3678      F3683   1.358       .  S
C3679      C3680   1.404       .  A
C3680      F3681   1.358       .  S
C3685      C3686   1.412       .  A
C3685      C3690   1.393       .  A
C3685      F3692   1.358       .  S
C3686      C3687   1.414       .  A
C3687      C3688   1.399       .  A
C3687      F3694   1.358       .  S
C3688      C3689   1.402       .  A
C3688      F3693   1.358       .  S
C3689      C3690   1.400       .  A
C3690      F3691   1.358       .  S
C3695      C3696   1.404       .  A
C3695      C3700   1.405       .  A
C3695      F3702   1.358       .  S
C3696      C3697   1.402       .  A
C3697      C3698   1.395       .  A
C3697      F3704   1.358       .  S
C3698      C3699   1.412       .  A
C3698      F3703   1.358       .  S
C3699      C3700   1.414       .  A
C3700      F3701   1.358       .  S
C3705      C3706   1.408       .  A
C3705      C3710   1.398       .  A
C3705      F3712   1.358       .  S
C3706      C3707   1.410       .  A
C3707      C3708   1.403       .  A
C3707      F3714   1.358       .  S
C3708      C3709   1.405       .  A
C3708      F3713   1.358       .  S
C3709      C3710   1.407       .  A
C3710      F3711   1.359       .  S
C3715      C3716   1.409       .  A
C3715      C3720   1.391       .  A
C3715      F3722   1.358       .  S
C3716      C3717   1.410       .  A
C3717      C3718   1.401       .  A
C3717      F3724   1.358       .  S
C3718      C3719   1.404       .  A
C3718      F3723   1.358       .  S
C3719      C3720   1.403       .  A
C3720      F3721   1.359       .  S
C3725      C3726   1.406       .  A
C3725      C3730   1.404       .  A
C3725      F3732   1.358       .  S
C3726      C3727   1.406       .  A
C3727      C3728   1.393       .  A
C3727      F3734   1.359       .  S
C3728      C3729   1.405       .  A
C3728      F3733   1.359       .  S
C3729      C3730   1.408       .  A
C3730      F3731   1.358       .  S
C3735      C3736   1.403       .  A
C3735      C3740   1.392       .  A
C3735      F3742   1.358       .  S
C3736      C3737   1.406       .  A
C3737      C3738   1.400       .  A
C3737      F3744   1.358       .  S
C3738      C3739   1.404       .  A
C3738      F3743   1.358       .  S
C3739      C3740   1.404       .  A
C3740      F3741   1.359       .  S
