geometry optimzed in LAMMPS
_audit_creation_date              2020-11-30 
_audit_creation_method            'lammps2cif' 
_symmetry_space_group_name_H-M    'P1' 
_symmetry_Int_Tables_number       1 
_symmetry_cell_setting            triclinic 
loop_ 
_symmetry_equiv_pos_as_xyz 
  x,y,z 
_cell_length_a                    55.20025678 
_cell_length_b                    55.32095945171799 
_cell_length_c                    34.51197836065699 
_cell_angle_alpha                 87.03515289115845 
_cell_angle_beta                  87.82407469942547 
_cell_angle_gamma                 119.45940935056352 
loop_ 
_atom_site_label 
_atom_site_type_symbol 
_atom_site_fract_x 
_atom_site_fract_y 
_atom_site_fract_z 
_atom_site_charge 
O1          O  0.81874647  0.33314490  0.11174150    -0.81200
O2          O  0.81985024  0.32273813  0.29019033    -0.65900
O3          O  0.83667681  0.35027584  0.18390742    -1.12500
C4          C  0.86737332  0.28388501  0.16940747     1.05700
O5          O  0.85466442  0.31327908  0.29369366    -0.79100
O6          O  0.89233023  0.32746538  0.23527237    -0.66700
Ni7        Ni  0.80878845  0.34908154  0.15293588     1.34900
C8          C  0.90119237  0.35043958  0.21504553     0.84400
O9          O  0.81716821  0.36480165  0.24813538    -0.79600
O10         O  0.79793551  0.36603468  0.19172911    -0.89900
C11         C  0.83702218  0.31885964  0.30945647     0.84000
O12         O  0.77908210  0.31272634  0.17049013    -0.68100
O13         O  0.86080813  0.27670542  0.20559019    -0.87400
C14         C  0.77108163  0.30239841  0.20524522     0.84800
C15         C  0.80465516  0.37383693  0.22579313     1.06400
H16         H  0.81873395  0.29212617  0.21493872     0.38200
O17         O  0.83595290  0.30871719  0.21915074    -1.10000
O18         O  0.88747387  0.35406079  0.18828106    -0.66700
Ni19       Ni  0.85166772  0.32762044  0.16882849     1.26300
O20         O  0.78715314  0.31085173  0.23283227    -0.66900
O21         O  0.86646144  0.30442225  0.15278236    -0.79200
C22         C  0.84329425  0.34216234  0.09655241     0.84200
O23         O  0.86313545  0.34635904  0.11785686    -0.66400
Ni24       Ni  0.85660066  0.29585469  0.24812878     1.27400
Ni25       Ni  0.82657013  0.33617606  0.23648411     1.26100
H26         H  0.85148610  0.36942842  0.18294634     0.38800
O27         O  0.81547917  0.32119737  0.61451362    -0.81200
O28         O  0.82402306  0.32536378  0.79136906    -0.65900
O29         O  0.83715637  0.34506343  0.68248338    -1.12500
C30         C  0.86893658  0.27952078  0.67524864     1.05700
O31         O  0.85629021  0.31255087  0.79828688    -0.79100
O32         O  0.89454118  0.32978101  0.73901194    -0.66700
Ni33       Ni  0.80803891  0.34153936  0.65199639     1.34900
C34         C  0.90294636  0.34922815  0.71199411     0.84400
O35         O  0.81928363  0.36346535  0.74390298    -0.79600
O36         O  0.79980237  0.36266341  0.68693087    -0.89900
C37         C  0.83982820  0.32036211  0.81213820     0.84000
O38         O  0.77823322  0.30691834  0.67568196    -0.68100
O39         O  0.86757552  0.27699160  0.71223070    -0.87400
C40         C  0.77232431  0.29780085  0.71119257     0.84800
C41         C  0.80657261  0.37154033  0.72049111     1.06400
H42         H  0.82085244  0.28883827  0.72192983     0.38200
O43         O  0.83814843  0.30605161  0.72313951    -1.10000
O44         O  0.88844128  0.34867864  0.68345732    -0.66700
Ni45       Ni  0.85099196  0.32112151  0.67019662     1.26300
O46         O  0.78971685  0.30802418  0.73684493    -0.66900
O47         O  0.86369832  0.29642263  0.65656951    -0.79200
C48         C  0.83933350  0.32983723  0.59711696     0.84200
O49         O  0.86022515  0.33598726  0.61699086    -0.66400
Ni50       Ni  0.86080428  0.29606584  0.75312457     1.27400
Ni51       Ni  0.82903964  0.33464364  0.73640764     1.26100
H52         H  0.85212302  0.36415696  0.67874850     0.38800
O53         O  0.51883832  0.19135011  0.11843414    -0.81200
O54         O  0.50353673  0.17243580  0.29864064    -0.65900
O55         O  0.51254687  0.16351602  0.19179558    -1.12500
C56         C  0.41808427  0.13070809  0.18252437     1.05700
O57         O  0.45695769  0.14896749  0.30907375    -0.79100
O58         O  0.45158849  0.11018004  0.25886586    -0.66700
Ni59       Ni  0.54205566  0.19278774  0.15897308     1.34900
C60         C  0.45492445  0.10098257  0.22725609     0.84400
O61         O  0.54590503  0.17462888  0.25400708    -0.79600
O62         O  0.56813853  0.19612193  0.19572972    -0.89900
C63         C  0.48134670  0.16271655  0.32082741     0.84000
O64         O  0.53910187  0.22327840  0.17742959    -0.68100
O65         O  0.41618803  0.12162190  0.21782821    -0.87400
C66         C  0.53442888  0.22775453  0.21177289     0.84800
C67         C  0.56795453  0.18732955  0.23061731     1.06400
H68         H  0.47312031  0.18189574  0.23091944     0.38200
O69         O  0.47281304  0.16426126  0.23165811    -1.10000
O70         O  0.46187373  0.11576364  0.19444788    -0.66700
Ni71       Ni  0.47652677  0.15578006  0.17982240     1.26300
O72         O  0.52455899  0.20891637  0.23969939    -0.66900
O73         O  0.44101353  0.14983307  0.16673078    -0.79200
C74         C  0.50026482  0.16934030  0.10533539     0.84200
O75         O  0.48261197  0.14909092  0.12815015    -0.66400
Ni76       Ni  0.43952904  0.13687961  0.26137814     1.27400
Ni77       Ni  0.50895484  0.16904006  0.24489318     1.26100
H78         H  0.51417306  0.14697871  0.19014269     0.38800
O79         O  0.52476654  0.18844449  0.61805836    -0.81200
O80         O  0.50780997  0.16749514  0.79865500    -0.65900
O81         O  0.51710226  0.16029379  0.69172548    -1.12500
C82         C  0.42325612  0.13162783  0.68143780     1.05700
O83         O  0.46145403  0.14840989  0.80816762    -0.79100
O84         O  0.45368262  0.10882380  0.75914383    -0.66700
Ni85       Ni  0.54715344  0.18996120  0.66047524     1.34900
C86         C  0.45846477  0.09964948  0.72844073     0.84400
O87         O  0.54886042  0.16816243  0.75465472    -0.79600
O88         O  0.57264706  0.19327540  0.69896257    -0.89900
C89         C  0.48580663  0.15958739  0.82033249     0.84000
O90         O  0.54274709  0.21966406  0.67940288    -0.68100
O91         O  0.42065945  0.12285694  0.71699156    -0.87400
C92         C  0.53978687  0.22409558  0.71448517     0.84800
C93         C  0.57153595  0.18254162  0.73310379     1.06400
H94         H  0.47991515  0.18112319  0.73011071     0.38200
O95         O  0.47822496  0.16286735  0.73110680    -1.10000
O96         O  0.46599234  0.11397689  0.69519550    -0.66700
Ni97       Ni  0.48160460  0.15393468  0.67945721     1.26300
O98         O  0.53094641  0.20505429  0.74200078    -0.66900
O99         O  0.44673856  0.14938554  0.66551004    -0.79200
C100        C  0.50450533  0.16732550  0.60516009     0.84200
O101        O  0.48729268  0.14679466  0.62794396    -0.66400
Ni102      Ni  0.44400961  0.13720414  0.76051582     1.27400
Ni103      Ni  0.51319097  0.16497728  0.74496472     1.26100
H104        H  0.51836181  0.14360954  0.68933362     0.38800
O105        O  0.67242834  0.48571673  0.09819921    -0.81200
O106        O  0.66806315  0.49429833  0.27531154    -0.65900
O107        O  0.64877278  0.48466478  0.17111061    -1.12500
C108        C  0.71448170  0.58097787  0.14458656     1.05700
O109        O  0.67932445  0.53897149  0.27650557    -0.79100
O110        O  0.66477237  0.56041504  0.21661334    -0.66700
Ni111      Ni  0.65419888  0.45926163  0.14259494     1.34900
C112        C  0.64425930  0.54760418  0.19589222     0.84400
O113        O  0.63017782  0.45046820  0.23826965    -0.79600
O114        O  0.63487085  0.43091417  0.18434371    -0.89900
C115        C  0.67228943  0.51522774  0.29354007     0.84000
O116        O  0.68997058  0.46717448  0.15955319    -0.68100
O117        O  0.71831431  0.58255009  0.18076251    -0.87400
C118        C  0.69695415  0.46871693  0.19431408     0.84800
C119        C  0.62427665  0.42931289  0.21864235     1.06400
H120        H  0.70461821  0.52499814  0.19732421     0.38200
O121        O  0.68741926  0.52536644  0.20172382    -1.10000
O122        O  0.64383488  0.53143342  0.17024861    -0.66700
Ni123      Ni  0.67201346  0.52203316  0.15214768     1.26300
O124        O  0.68522606  0.47517064  0.22088972    -0.66900
O125        O  0.69594308  0.55917264  0.13123091    -0.79200
C126        C  0.66321195  0.50064252  0.08247314     0.84200
O127        O  0.65666892  0.51518724  0.10304128    -0.66400
Ni128      Ni  0.69755735  0.55858026  0.22701056     1.27400
Ni129      Ni  0.65887226  0.48847756  0.22284140     1.26100
H130        H  0.62944051  0.47993877  0.17059739     0.38800
O131        O  0.66570312  0.47777790  0.59657175    -0.81200
O132        O  0.67088586  0.49132710  0.77542600    -0.65900
O133        O  0.64838159  0.47999756  0.67254499    -1.12500
C134        C  0.71389905  0.57737018  0.64535299     1.05700
O135        O  0.67915846  0.53507406  0.77538138    -0.79100
O136        O  0.66746439  0.55800856  0.71539469    -0.66700
Ni137      Ni  0.65152392  0.45340224  0.64389428     1.34900
C138        C  0.64506651  0.54235673  0.69981099     0.84400
O139        O  0.63172984  0.44666673  0.74120492    -0.79600
O140        O  0.63553711  0.42621962  0.68797542    -0.89900
C141        C  0.67307122  0.51183148  0.79309609     0.84000
O142        O  0.68875080  0.46335836  0.65643508    -0.68100
O143        O  0.72050561  0.57816816  0.68044689    -0.87400
C144        C  0.69683001  0.46482200  0.69063569     0.84800
C145        C  0.62598625  0.42505656  0.72278871     1.06400
H146        H  0.70523286  0.52072775  0.69585708     0.38200
O147        O  0.68815337  0.52112914  0.70135869    -1.10000
O148        O  0.64324527  0.52525091  0.67505531    -0.66700
Ni149      Ni  0.67137445  0.51758100  0.65316859     1.26300
O150        O  0.68602386  0.47109809  0.71867933    -0.66900
O151        O  0.69414734  0.55562901  0.63303144    -0.79200
C152        C  0.65840066  0.49499718  0.58313825     0.84200
O153        O  0.65451338  0.51073147  0.60506122    -0.66400
Ni154      Ni  0.69906693  0.55453700  0.72660367     1.27400
Ni155      Ni  0.66001452  0.48450719  0.72365579     1.26100
H156        H  0.62904471  0.47538083  0.67345532     0.38800
O157        O  0.32717879  0.80440854  0.36286289    -0.81200
O158        O  0.31468345  0.81456381  0.18828429    -0.65900
O159        O  0.34387071  0.83063056  0.28714955    -1.12500
C160        C  0.27739104  0.85923185  0.31457502     1.05700
O161        O  0.30496384  0.84926098  0.18178264    -0.79100
O162        O  0.32661237  0.88648844  0.23500320    -0.66700
Ni163      Ni  0.34997029  0.80525724  0.31847028     1.34900
C164        C  0.34448223  0.89483823  0.26040057     0.84400
O165        O  0.35828473  0.81303332  0.22022079    -0.79600
O166        O  0.37366209  0.80533375  0.27697837    -0.89900
C167        C  0.30978489  0.83113002  0.16755385     0.84000
O168        O  0.32051574  0.77050643  0.30376562    -0.68100
O169        O  0.27616664  0.86189094  0.27787412    -0.87400
C170        C  0.30447519  0.76389546  0.27604985     0.84800
C171        C  0.37454191  0.80741441  0.23988817     1.06400
H172        H  0.28389643  0.81199050  0.26509898     0.38200
O173        O  0.30115671  0.82934507  0.25957939    -1.10000
O174        O  0.34282404  0.87930520  0.29043080    -0.66700
Ni175      Ni  0.31771984  0.84000407  0.30799234     1.26300
O176        O  0.30439138  0.78179135  0.25143936    -0.66900
O177        O  0.29106159  0.84877164  0.32967058    -0.79200
C178        C  0.33039735  0.82625171  0.37790567     0.84200
O179        O  0.33405276  0.84718944  0.35633101    -0.66400
Ni180      Ni  0.29160984  0.85402292  0.23174077     1.27400
Ni181      Ni  0.32921157  0.82122829  0.23818533     1.26100
H182        H  0.36175406  0.84744935  0.28272734     0.38800
O183        O  0.32361735  0.80291536  0.86665500    -0.81200
O184        O  0.32789684  0.81766035  0.68749073    -0.65900
O185        O  0.34742373  0.82763874  0.79174281    -1.12500
C186        C  0.28525712  0.86317170  0.80777096     1.05700
O187        O  0.31564440  0.85043260  0.67916571    -0.79100
O188        O  0.33694410  0.88764844  0.73268803    -0.66700
Ni189      Ni  0.34428043  0.79755550  0.82475239     1.34900
C190        C  0.35386473  0.89486082  0.75936444     0.84400
O191        O  0.36595017  0.81176427  0.72774963    -0.79600
O192        O  0.36574574  0.79099170  0.78619301    -0.89900
C193        C  0.32220302  0.83321690  0.66600281     0.84000
O194        O  0.31015755  0.76771022  0.80844927    -0.68100
O195        O  0.28516726  0.86546896  0.77091723    -0.87400
C196        C  0.30169868  0.76317772  0.77446653     0.84800
C197        C  0.37386588  0.79808508  0.75019494     1.06400
H198        H  0.29116738  0.81334295  0.76126872     0.38200
O199        O  0.30879487  0.83046890  0.75712323    -1.10000
O200        O  0.35065740  0.87876025  0.78951821    -0.66700
Ni201      Ni  0.32288276  0.84038967  0.80723015     1.26300
O202        O  0.31104946  0.78213311  0.74677220    -0.66900
O203        O  0.29763826  0.85204409  0.82464284    -0.79200
C204        C  0.32974661  0.82614784  0.88002138     0.84200
O205        O  0.33701309  0.84747092  0.85698540    -0.66400
Ni206      Ni  0.30152817  0.85626334  0.72731456     1.27400
Ni207      Ni  0.33736072  0.82148162  0.74002131     1.26100
H208        H  0.36643946  0.84272578  0.79125023     0.38800
O209        O  0.18349674  0.49665289  0.37901676    -0.81200
O210        O  0.17118475  0.49429012  0.20397005    -0.65900
O211        O  0.16159753  0.50176056  0.31108438    -1.12500
C212        C  0.12227713  0.40258934  0.32739012     1.05700
O213        O  0.13342532  0.45221569  0.20337715    -0.79100
O214        O  0.09848467  0.42960397  0.26556531    -0.66700
Ni215      Ni  0.19150361  0.52562149  0.33942260     1.34900
C216        C  0.09262450  0.44362483  0.28830576     0.84400
O217        O  0.18100905  0.53902086  0.24554351    -0.79600
O218        O  0.20076500  0.55595762  0.30159348    -0.89900
C219        C  0.15251756  0.47489638  0.18617551     0.84000
O220        O  0.22010557  0.51978924  0.31664154    -0.68100
O221        O  0.12671330  0.40287178  0.29085890    -0.87400
C222        C  0.22495458  0.51626563  0.28179502     0.84800
C223        C  0.19534808  0.55928196  0.26669603     1.06400
H224        H  0.17286484  0.45924346  0.27703685     0.38200
O225        O  0.15618301  0.46082610  0.27526430    -1.10000
O226        O  0.10883794  0.45839109  0.31356629    -0.66700
Ni227      Ni  0.14487631  0.46326131  0.32724148     1.26300
O228        O  0.20671561  0.50891563  0.25701862    -0.66900
O229        O  0.12765526  0.42445499  0.34397587    -0.79200
C230        C  0.15984753  0.48214367  0.39762923     0.84200
O231        O  0.13800892  0.46917232  0.37941329    -0.66400
Ni232      Ni  0.13155643  0.42960635  0.24859328     1.27400
Ni233      Ni  0.16804399  0.49934961  0.25781177     1.26100
H234        H  0.14756319  0.50747370  0.31364412     0.38800
O235        O  0.18046705  0.50181833  0.87944758    -0.81200
O236        O  0.17311985  0.49638886  0.70374436    -0.65900
O237        O  0.16038944  0.50493653  0.80941973    -1.12500
C238        C  0.13157109  0.40815255  0.83247866     1.05700
O239        O  0.14096581  0.45133415  0.70466583    -0.79100
O240        O  0.10500768  0.42672272  0.76577900    -0.66700
Ni241      Ni  0.18971342  0.52980441  0.83747367     1.34900
C242        C  0.09638199  0.44146643  0.78208316     0.84400
O243        O  0.17732375  0.54032770  0.74314440    -0.79600
O244        O  0.19916404  0.55910689  0.79730935    -0.89900
C245        C  0.15757902  0.47476482  0.68659681     0.84000
O246        O  0.21873755  0.52309565  0.81766305    -0.68100
O247        O  0.13950907  0.40899370  0.79709524    -0.87400
C248        C  0.22495151  0.52189248  0.78233960     0.84800
C249        C  0.19143157  0.56127294  0.76334778     1.06400
H250        H  0.17853774  0.46647263  0.78173871     0.38200
O251        O  0.16081242  0.46527616  0.77737835    -1.10000
O252        O  0.11009133  0.45878884  0.80697657    -0.66700
Ni253      Ni  0.14578261  0.46707306  0.82719282     1.26300
O254        O  0.20759041  0.51581341  0.75670012    -0.66900
O255        O  0.13083503  0.42865227  0.84627361    -0.79200
C256        C  0.15625313  0.48721325  0.89689065     0.84200
O257        O  0.13529075  0.47328751  0.87736329    -0.66400
Ni258      Ni  0.14111640  0.43210743  0.75218938     1.27400
Ni259      Ni  0.16829558  0.50199497  0.75700447     1.26100
H260        H  0.14573973  0.50970157  0.81107472     0.38800
O261        O  0.47979591  0.67357226  0.35287109    -0.81200
O262        O  0.49114476  0.66676313  0.17420044    -0.65900
O263        O  0.48275872  0.65118591  0.28329525    -1.12500
C264        C  0.57912882  0.70891414  0.28715782     1.05700
O265        O  0.53747014  0.69246231  0.16224335    -0.79100
O266        O  0.54386693  0.65877704  0.21519438    -0.66700
Ni267      Ni  0.45535884  0.65512870  0.31271855     1.34900
C268        C  0.53829849  0.64333000  0.24656764     0.84400
O269        O  0.44910392  0.62879393  0.22390608    -0.79600
O270        O  0.42799227  0.63541385  0.27633965    -0.89900
C271        C  0.51288167  0.67956738  0.15112115     0.84000
O272        O  0.46389266  0.69073339  0.28878867    -0.68100
O273        O  0.58015773  0.70412436  0.25171621    -0.87400
C274        C  0.46509309  0.69695055  0.25265098     0.84800
C275        C  0.42731335  0.62282138  0.24600229     1.06400
H276        H  0.52233984  0.70767031  0.23930916     0.38200
O277        O  0.52283926  0.69044698  0.23985052    -1.10000
O278        O  0.53155931  0.64947185  0.27945664    -0.66700
Ni279      Ni  0.51973883  0.67682593  0.29301101     1.26300
O280        O  0.47087278  0.68440018  0.22731744    -0.66900
O281        O  0.55642135  0.70362852  0.30479761    -0.79200
C282        C  0.49749936  0.66803141  0.36757446     0.84200
O283        O  0.51345075  0.66302807  0.34608964    -0.66400
Ni284      Ni  0.55570845  0.69717823  0.20954565     1.27400
Ni285      Ni  0.48625743  0.65964351  0.22915096     1.26100
H286        H  0.47932229  0.63238220  0.28850265     0.38800
O287        O  0.46586081  0.64601323  0.85890488    -0.81200
O288        O  0.48779365  0.65725275  0.67673553    -0.65900
O289        O  0.47646264  0.63273672  0.78441033    -1.12500
C290        C  0.57065358  0.69531996  0.79553616     1.05700
O291        O  0.53403276  0.67676699  0.66802288    -0.79100
O292        O  0.53842270  0.64287753  0.72298747    -0.66700
Ni293      Ni  0.44558046  0.63077139  0.81408283     1.34900
C294        C  0.53345411  0.62844069  0.75510790     0.84400
O295        O  0.44610575  0.61468106  0.71962977    -0.79600
O296        O  0.42140050  0.61378837  0.77356187    -0.89900
C297        C  0.51022501  0.66825592  0.65500977     0.84000
O298        O  0.45210129  0.66697297  0.79663130    -0.68100
O299        O  0.57278856  0.68900806  0.76116958    -0.87400
C300        C  0.45591149  0.67715919  0.76174044     0.84800
C301        C  0.42318700  0.60580399  0.74012203     1.06400
H302        H  0.51646619  0.69251281  0.74483068     0.38200
O303        O  0.51680367  0.67520663  0.74527781    -1.10000
O304        O  0.52674356  0.63525763  0.78700605    -0.66700
Ni305      Ni  0.51192963  0.66008780  0.79814248     1.26300
O306        O  0.46475995  0.66859573  0.73410777    -0.66900
O307        O  0.54717493  0.68851536  0.81234287    -0.79200
C308        C  0.48627570  0.64465643  0.87247399     0.84200
O309        O  0.50494413  0.64445505  0.85031375    -0.66400
Ni310      Ni  0.55023518  0.68143109  0.71694389     1.27400
Ni311      Ni  0.48154637  0.64518869  0.73072440     1.26100
H312        H  0.47491281  0.61453649  0.78679892     0.38800
O313        O  0.16082030  0.99138156  0.07936262    -0.81200
O314        O  0.17349647  0.99749304  0.89976819    -0.65900
O315        O  0.16061017  0.97278226  0.00654222    -1.12500
C316        C  0.25708095  0.03788284  0.01367808     1.05700
O317        O  0.21693510  0.00441084  0.89287361    -0.79100
O318        O  0.24135347  0.99398537  0.95259134    -0.66700
Ni319      Ni  0.13520745  0.97708918  0.03910492     1.34900
C320        C  0.22381324  0.97002940  0.96822327     0.84400
O321        O  0.12758652  0.95858204  0.94493718    -0.79600
O322        O  0.10763179  0.96178891  0.00167836    -0.89900
C323        C  0.19377498  0.99891435  0.87902964     0.84000
O324        O  0.14542291  0.01437472  0.02020567    -0.68100
O325        O  0.25813400  0.04586344  0.97790770    -0.87400
C326        C  0.14620593  0.02260630  0.98492713     0.84800
C327        C  0.10620001  0.95352201  0.96745495     1.06400
H328        H  0.20198708  0.02952269  0.97251550     0.38200
O329        O  0.20229780  0.01260018  0.96791478    -1.10000
O330        O  0.20520935  0.96618765  0.99498360    -0.66700
Ni331      Ni  0.19829168  0.99411219  0.01778066     1.26300
O332        O  0.15274558  0.01228623  0.95711189    -0.66900
O333        O  0.23633364  0.01582113  0.02968634    -0.79200
C334        C  0.17631746  0.98214835  0.09244316     0.84200
O335        O  0.19072827  0.97613890  0.06915191    -0.66400
Ni336      Ni  0.23598937  0.02445650  0.93677733     1.27400
Ni337      Ni  0.16569360  0.98568670  0.95367483     1.26100
H338        H  0.15515911  0.95324513  0.00832231     0.38800
O339        O  0.16615124  0.00264109  0.57876921    -0.81200
O340        O  0.17688104  0.00385094  0.39814506    -0.65900
O341        O  0.16417823  0.98206557  0.50637187    -1.12500
C342        C  0.26212837  0.04078388  0.51244643     1.05700
O343        O  0.22036795  0.01094069  0.39041200    -0.79100
O344        O  0.24029540  0.99455922  0.44922265    -0.66700
Ni345      Ni  0.14063100  0.98957388  0.53824834     1.34900
C346        C  0.22322926  0.97241126  0.46975173     0.84400
O347        O  0.13070877  0.96784911  0.44551951    -0.79600
O348        O  0.11310415  0.97550659  0.50096417    -0.89900
C349        C  0.19714404  0.00548646  0.37700842     0.84000
O350        O  0.15378242  0.02717073  0.51742296    -0.68100
O351        O  0.26412823  0.04747692  0.47606297    -0.87400
C352        C  0.15324721  0.03375336  0.48182752     0.84800
C353        C  0.11026518  0.96554617  0.46773174     1.06400
H354        H  0.20804672  0.03712492  0.46962545     0.38200
O355        O  0.20702787  0.01943478  0.46622035    -1.10000
O356        O  0.20656122  0.97162014  0.49734869    -0.66700
Ni357      Ni  0.20187765  0.00159538  0.51733414     1.26300
O358        O  0.15852549  0.02190237  0.45481484    -0.66900
O359        O  0.23978629  0.02138593  0.52970257    -0.79200
C360        C  0.17952380  0.99108275  0.59217024     0.84200
O361        O  0.19326809  0.98420665  0.56910759    -0.66400
Ni362      Ni  0.24018297  0.02828882  0.43512347     1.27400
Ni363      Ni  0.16950969  0.99368587  0.45287901     1.26100
H364        H  0.15741629  0.96225323  0.50934379     0.38800
O365        O  0.98799586  0.13062462  0.08025849    -0.81200
O366        O  0.99362875  0.14227818  0.90350825    -0.65900
O367        O  0.01379902  0.15374113  0.00745845    -1.12500
C368        C  0.95316002  0.19270645  0.01461788     1.05700
O369        O  0.99460080  0.18285090  0.89485156    -0.79100
O370        O  0.00643952  0.21803837  0.94912780    -0.66700
Ni371      Ni  0.01029575  0.12463480  0.04242066     1.34900
C372        C  0.02491337  0.22339775  0.97309528     0.84400
O373        O  0.03066847  0.13379274  0.94569149    -0.79600
O374        O  0.03313598  0.11809108  0.00662515    -0.89900
C375        C  0.99367832  0.16147756  0.88150882     0.84000
O376        O  0.97748662  0.09363339  0.02615535    -0.68100
O377        O  0.95181929  0.19151958  0.97791423    -0.87400
C378        C  0.96672647  0.08902313  0.99365804     0.84800
C379        C  0.04049393  0.12300218  0.97024333     1.06400
H380        H  0.95939266  0.14325881  0.97506921     0.38200
O381        O  0.97780320  0.15936290  0.97064760    -1.10000
O382        O  0.02225501  0.20647147  0.00182272    -0.66700
Ni383      Ni  0.99129649  0.16971761  0.02059975     1.26300
O384        O  0.97466593  0.10795834  0.96587559    -0.66900
O385        O  0.96822488  0.18553440  0.03371742    -0.79200
C386        C  0.99663913  0.15407706  0.09415311     0.84200
O387        O  0.00400132  0.17578978  0.07154469    -0.66400
Ni388      Ni  0.97344571  0.18567925  0.93794171     1.27400
Ni389      Ni  0.00367727  0.14650294  0.95601867     1.26100
H390        H  0.03317293  0.16811432  0.00612752     0.38800
O391        O  0.98802328  0.12810624  0.58082220    -0.81200
O392        O  0.98921472  0.13828562  0.40370582    -0.65900
O393        O  0.01049653  0.15209618  0.50656084    -1.12500
C394        C  0.94142871  0.17999826  0.51710664     1.05700
O395        O  0.98441057  0.17580940  0.39528303    -0.79100
O396        O  0.99280437  0.21026167  0.44978995    -0.66700
Ni397      Ni  0.01117996  0.12479092  0.54091499     1.34900
C398        C  0.01217317  0.21774123  0.47269386     0.84400
O399        O  0.02948927  0.13538614  0.44350207    -0.79600
O400        O  0.03525531  0.12102522  0.50342784    -0.89900
C401        C  0.98787150  0.15668598  0.38188339     0.84000
O402        O  0.97944795  0.09193905  0.52580305    -0.68100
O403        O  0.93923076  0.17814568  0.48062627    -0.87400
C404        C  0.96782068  0.08612834  0.49393867     0.84800
C405        C  0.04140034  0.12625544  0.46676119     1.06400
H406        H  0.95365883  0.13483614  0.47660957     0.38200
O407        O  0.97097043  0.15220131  0.47157554    -1.10000
O408        O  0.01224993  0.20183612  0.50091924    -0.66700
Ni409      Ni  0.98474180  0.16388969  0.52090792     1.26300
O410        O  0.97401927  0.10444611  0.46586114    -0.66900
O411        O  0.95851089  0.17544969  0.53541178    -0.79200
C412        C  0.99362351  0.15119410  0.59409611     0.84200
O413        O  0.99831228  0.17192980  0.57106478    -0.66400
Ni414      Ni  0.96222069  0.17558247  0.43951329     1.27400
Ni415      Ni  0.99981338  0.14379245  0.45558064     1.26100
H416        H  0.02911037  0.16800334  0.50462031     0.38800
O417        O  0.84243964  0.84087351  0.86284021    -0.81200
O418        O  0.83625277  0.83615207  0.04182881    -0.65900
O419        O  0.84520696  0.82253178  0.93721632    -1.12500
C420        C  0.74667073  0.78679457  0.93498118     1.05700
O421        O  0.79317881  0.80011750  0.05407284    -0.79100
O422        O  0.77029161  0.76274610  0.00267289    -0.66700
Ni423      Ni  0.87004344  0.85130199  0.90020584     1.34900
C424        C  0.78499074  0.75578468  0.98189063     0.84400
O425        O  0.88090055  0.84305157  0.99583777    -0.79600
O426        O  0.89921945  0.86262772  0.93494409    -0.89900
C427        C  0.81655304  0.81806730  0.06527455     0.84000
O428        O  0.86305775  0.88041265  0.91487551    -0.68100
O429        O  0.74639276  0.79200608  0.97044690    -0.87400
C430        C  0.86043475  0.88717692  0.94876370     0.84800
C431        C  0.90168894  0.85754647  0.97066389     1.06400
H432        H  0.80303583  0.83665633  0.96937673     0.38200
O433        O  0.80391772  0.81991201  0.97577180    -1.10000
O434        O  0.80084291  0.77073378  0.95203793    -0.66700
Ni435      Ni  0.80698898  0.80605283  0.92725336     1.26300
O436        O  0.85272942  0.86990809  0.97855547    -0.66900
O437        O  0.76843020  0.78973247  0.91646617    -0.79200
C438        C  0.82861305  0.81625403  0.85229874     0.84200
O439        O  0.81383235  0.79603668  0.87749747    -0.66400
Ni440      Ni  0.77178110  0.79726303  0.01030246     1.27400
Ni441      Ni  0.84185807  0.83106683  0.98857183     1.26100
H442        H  0.85063954  0.80836667  0.93805171     0.38800
O443        O  0.85188761  0.83996646  0.36182858    -0.81200
O444        O  0.84062271  0.83106024  0.54233156    -0.65900
O445        O  0.85167747  0.81976487  0.43715174    -1.12500
C446        C  0.75353099  0.78634633  0.43296943     1.05700
O447        O  0.79843746  0.79347980  0.55188022    -0.79100
O448        O  0.77359144  0.75911263  0.49690656    -0.66700
Ni449      Ni  0.87775780  0.84913305  0.40180690     1.34900
C450        C  0.78890529  0.75240531  0.47718719     0.84400
O451        O  0.88572136  0.83802016  0.49805673    -0.79600
O452        O  0.90573289  0.85924066  0.43846464    -0.89900
C453        C  0.82090509  0.81201054  0.56472160     0.84000
O454        O  0.87011277  0.87779392  0.41705152    -0.68100
O455        O  0.75319471  0.79193885  0.46835356    -0.87400
C456        C  0.86690324  0.88388223  0.45120814     0.84800
C457        C  0.90708643  0.85278287  0.47407040     1.06400
H458        H  0.80959718  0.83408003  0.46948039     0.38200
O459        O  0.81012139  0.81706514  0.47513684    -1.10000
O460        O  0.80674025  0.76837100  0.44960675    -0.66700
Ni461      Ni  0.81372997  0.80434062  0.42616046     1.26300
O462        O  0.85904388  0.86617446  0.48048775    -0.66900
O463        O  0.77526145  0.78875114  0.41491925    -0.79200
C464        C  0.83618482  0.81567323  0.35101096     0.84200
O465        O  0.82092240  0.79536328  0.37588680    -0.66400
Ni466      Ni  0.77754798  0.79400831  0.50850857     1.27400
Ni467      Ni  0.84737727  0.82709487  0.48904607     1.26100
H468        H  0.85669873  0.80530435  0.43757475     0.38800
C469        C  0.78231852  0.76729714  0.69698661    -0.18100
C470        C  0.78333865  0.76758095  0.73740323    -0.20300
C471        C  0.80621165  0.78891208  0.75384027     0.20400
C472        C  0.82858454  0.80983859  0.72920680    -0.03200
C473        C  0.82750524  0.80960981  0.68843881    -0.06300
C474        C  0.80410432  0.78840126  0.67233455     0.20600
C475        C  0.84949543  0.83097795  0.66386976     0.18800
C476        C  0.87272589  0.85191859  0.68026669    -0.17800
C477        C  0.87382586  0.85212898  0.72066146    -0.20000
C478        C  0.85167711  0.83144294  0.74528339     0.20300
C479        C  0.85181592  0.83250444  0.78567459    -0.33000
C480        C  0.82913263  0.81238390  0.81036083     0.01000
C481        C  0.80671769  0.79019543  0.79437566    -0.24300
C482        C  0.80254609  0.78901065  0.63191245    -0.28900
C483        C  0.82391854  0.81073476  0.60718809     0.06700
C484        C  0.84758382  0.83138533  0.62342592    -0.27600
H485        H  0.76424054  0.75080718  0.68500428     0.11400
H486        H  0.76602289  0.75135090  0.75581101     0.12500
H487        H  0.88984833  0.86838462  0.66186269     0.11600
H488        H  0.89177160  0.86877884  0.73266035     0.10800
H489        H  0.86936917  0.84947638  0.79792101     0.16200
H490        H  0.78920511  0.77467999  0.81329734     0.12100
H491        H  0.78431641  0.77278736  0.61980760     0.15000
H492        H  0.86425991  0.84809594  0.60470751     0.14800
C493        C  0.87782892  0.85035784  0.21725297    -0.18100
C494        C  0.87496861  0.85139383  0.17720344    -0.20300
C495        C  0.84962426  0.83316715  0.16211563     0.20400
C496        C  0.82723852  0.81309015  0.18755695    -0.03200
C497        C  0.83016768  0.81192552  0.22792709    -0.06300
C498        C  0.85540867  0.83103016  0.24283104     0.20600
C499        C  0.80758036  0.79219406  0.25344697     0.18800
C500        C  0.78254678  0.77336637  0.23821117    -0.17800
C501        C  0.77962668  0.77456072  0.19820852    -0.20000
C502        C  0.80171443  0.79456057  0.17280312     0.20300
C503        C  0.79855886  0.79652497  0.13296026    -0.33000
C504        C  0.82057189  0.81675529  0.10735416     0.01000
C505        C  0.84616225  0.83487175  0.12216004    -0.24300
C506        C  0.85745696  0.83112483  0.28313380    -0.28900
C507        C  0.83466014  0.81235170  0.30882982     0.06700
C508        C  0.81008370  0.79232639  0.29379236    -0.27600
H509        H  0.89743009  0.86501872  0.22830034     0.11400
H510        H  0.89243460  0.86675784  0.15810272     0.12500
H511        H  0.76504553  0.75805176  0.25730578     0.11600
H512        H  0.75994126  0.76006694  0.18718872     0.10800
H513        H  0.77876241  0.78224043  0.12198456     0.16200
H514        H  0.86331936  0.85033930  0.10270045     0.12100
H515        H  0.87661534  0.84637602  0.29461585     0.15000
H516        H  0.79247243  0.77784738  0.31347424     0.14800
C517        C  0.91953483  0.01061544  0.40677628    -0.18100
C518        C  0.90508966  0.98221521  0.40075066    -0.20300
C519        C  0.89547450  0.96198222  0.43236540     0.20400
C520        C  0.89961748  0.97051154  0.47055194    -0.03200
C521        C  0.91432152  0.99924595  0.47664891    -0.06300
C522        C  0.92467200  0.01936053  0.44455127     0.20600
C523        C  0.91956029  0.00778251  0.51472970     0.18800
C524        C  0.90908375  0.98755056  0.54642962    -0.17800
C525        C  0.89446599  0.95912942  0.54040685    -0.14600
C526        C  0.89007960  0.95036803  0.50254665     0.20300
C527        C  0.87749792  0.92191639  0.49605790    -0.33000
C528        C  0.87468466  0.91323192  0.45789125     0.01000
C529        C  0.88297758  0.93348399  0.42630307    -0.24300
C530        C  0.94081905  0.04777822  0.45064044    -0.28900
C531        C  0.94725414  0.05648872  0.48842794     0.06700
C532        C  0.93599036  0.03627443  0.52036652    -0.27600
H533        H  0.92724266  0.02575480  0.38177366     0.11400
H534        H  0.90200280  0.97607194  0.37123874     0.12500
H535        H  0.91272132  0.99369041  0.57589659     0.11600
H536        H  0.88718540  0.94397704  0.56536975     0.10800
H537        H  0.87131615  0.90667602  0.52077058     0.16200
H538        H  0.88090981  0.92720413  0.39683081     0.12100
H539        H  0.94943904  0.06300436  0.42571986     0.15000
H540        H  0.94065108  0.04262911  0.54959724     0.14800
C541        C  0.99420637  0.20020906  0.70993777    -0.18100
C542        C  0.99430424  0.20160130  0.75025389    -0.20300
C543        C  0.99405173  0.18026184  0.77443598     0.20400
C544        C  0.99370849  0.15731739  0.75799222    -0.03200
C545        C  0.99368844  0.15595588  0.71739384    -0.06300
C546        C  0.99392040  0.17749744  0.69324573     0.20600
C547        C  0.99346992  0.13304429  0.70099925     0.18800
C548        C  0.99331848  0.11177044  0.72514193    -0.17800
C549        C  0.99322218  0.11307064  0.76541794    -0.20000
C550        C  0.99341261  0.13572166  0.78208638     0.20300
C551        C  0.99339501  0.13715174  0.82242114    -0.33000
C552        C  0.99389419  0.15999664  0.83899595     0.01000
C553        C  0.99416278  0.18146253  0.81478540    -0.24300
C554        C  0.99389257  0.17593507  0.65286372    -0.28900
C555        C  0.99360337  0.15309608  0.63646103     0.06700
C556        C  0.99340607  0.13176893  0.66071550    -0.27600
H557        H  0.99438819  0.21689918  0.69181738     0.11400
H558        H  0.99457622  0.21936408  0.76252636     0.12500
H559        H  0.99321932  0.09408900  0.71286681     0.11600
H560        H  0.99304652  0.09638123  0.78353021     0.10800
H561        H  0.99303903  0.12049044  0.84085996     0.16200
H562        H  0.99440901  0.19915890  0.82727728     0.12100
H563        H  0.99396022  0.19238335  0.63427632     0.15000
H564        H  0.99336806  0.11416248  0.64823361     0.14800
C565        C  0.00361681  0.20435528  0.25172414    -0.18100
C566        C  0.00478355  0.20406171  0.21129708    -0.20300
C567        C  0.00084143  0.18011906  0.19404286     0.20400
C568        C  0.99592755  0.15629553  0.21769018    -0.03200
C569        C  0.99479477  0.15660056  0.25839624    -0.06300
C570        C  0.99850433  0.18070699  0.27539782     0.20600
C571        C  0.98966392  0.13270765  0.28205151     0.18800
C572        C  0.98592427  0.10882844  0.26481381    -0.17800
C573        C  0.98703783  0.10851761  0.22437804    -0.20000
C574        C  0.99187365  0.13207877  0.20068807     0.20300
C575        C  0.99244011  0.13175004  0.16026729    -0.33000
C576        C  0.99695856  0.15528087  0.13656560     0.01000
C577        C  0.00143210  0.17948652  0.15357363    -0.24300
C578        C  0.99670473  0.18064342  0.31581343    -0.28900
C579        C  0.99121541  0.15679475  0.33950919     0.06700
C580        C  0.98801897  0.13300401  0.32251936    -0.27600
H581        H  0.00653522  0.22301427  0.26448578     0.11400
H582        H  0.00858385  0.22248770  0.19353256     0.12500
H583        H  0.98197495  0.09035424  0.28259746     0.11600
H584        H  0.98393676  0.08979464  0.21162957     0.10800
H585        H  0.98922563  0.11305178  0.14728276     0.16200
H586        H  0.00494771  0.19765690  0.13539069     0.12100
H587        H  0.99941365  0.19917372  0.32880361     0.15000
H588        H  0.98366319  0.11454971  0.34073609     0.14800
C589        C  0.90905736  0.98614075  0.89775541    -0.18100
C590        C  0.92406335  0.01443406  0.90418760    -0.20300
C591        C  0.92584235  0.02304698  0.94203426     0.20400
C592        C  0.91190235  0.00293112  0.97367704    -0.03200
C593        C  0.89641425  0.97430771  0.96710582    -0.06300
C594        C  0.89533906  0.96588449  0.92900343     0.20600
C595        C  0.88287846  0.95410097  0.99874574     0.18800
C596        C  0.88456044  0.96274856  0.03660804    -0.17800
C597        C  0.90018895  0.99103669  0.04315792    -0.20000
C598        C  0.91419928  0.01130617  0.01194141     0.20300
C599        C  0.93112898  0.03963631  0.01835584    -0.33000
C600        C  0.94548384  0.05985627  0.98692473     0.01000
C601        C  0.94212299  0.05130780  0.94879771    -0.24300
C602        C  0.88165322  0.93736038  0.92290407    -0.28900
C603        C  0.86911826  0.91690147  0.95440954     0.06700
C604        C  0.86906112  0.92560210  0.99217554    -0.27600
H605        H  0.90854136  0.98006923  0.86831728     0.11400
H606        H  0.93474475  0.02957029  0.87955862     0.12500
H607        H  0.87432566  0.94755730  0.06130197     0.11600
H608        H  0.90162868  0.99702272  0.07274532     0.10800
H609        H  0.93364262  0.04585438  0.04786890     0.16200
H610        H  0.95339014  0.06648714  0.92437855     0.12100
H611        H  0.88205067  0.93113508  0.89372617     0.15000
H612        H  0.85962213  0.91020862  0.01681946     0.14800
C613        C  0.99803805  0.86066563  0.44999896    -0.18100
C614        C  0.02688110  0.87815355  0.44263017    -0.20300
C615        C  0.03959896  0.90608043  0.45140217     0.20400
C616        C  0.02291546  0.91641852  0.46770371    -0.03200
C617        C  0.99395589  0.89863344  0.47597304    -0.06300
C618        C  0.98141231  0.87068774  0.46668592     0.20600
C619        C  0.97744371  0.90904421  0.49250897     0.18800
C620        C  0.99005165  0.93701280  0.50099908    -0.17800
C621        C  0.01869876  0.95461116  0.49280607    -0.20000
C622        C  0.03519837  0.94448623  0.47613450     0.20300
C623        C  0.06400985  0.96163345  0.46968562    -0.33000
C624        C  0.08112919  0.95086680  0.45713423     0.01000
C625        C  0.06878426  0.92344552  0.44618702    -0.24300
C626        C  0.95227959  0.85381596  0.47199380    -0.28900
C627        C  0.93561828  0.86458683  0.48627464     0.06700
C628        C  0.94840395  0.89182327  0.49794043    -0.27600
H629        H  0.98869674  0.83929473  0.44246167     0.11400
H630        H  0.03925002  0.86980454  0.43013697     0.12500
H631        H  0.97769266  0.94536925  0.51352015     0.11600
H632        H  0.02799323  0.97612333  0.49973141     0.10800
H633        H  0.07350489  0.98283501  0.47814492     0.16200
H634        H  0.08189034  0.91498208  0.43695894     0.12100
H635        H  0.94233346  0.83312924  0.46170484     0.15000
H636        H  0.93551145  0.90047271  0.50748841     0.14800
C637        C  0.14451429  0.11789538  0.49898608    -0.18100
C638        C  0.12951110  0.13203798  0.49403986    -0.20300
C639        C  0.10603983  0.12128942  0.47203131     0.20400
C640        C  0.09836880  0.09678210  0.45322513    -0.03200
C641        C  0.11376712  0.08268877  0.45781153    -0.06300
C642        C  0.13651940  0.09289961  0.48166398     0.20600
C643        C  0.10559108  0.05771077  0.44001812     0.18800
C644        C  0.08234513  0.04717945  0.41754209    -0.17800
C645        C  0.06680733  0.06085481  0.41360304    -0.20000
C646        C  0.07435895  0.08545837  0.43177590     0.20300
C647        C  0.05722040  0.09772801  0.43140367    -0.33000
C648        C  0.06374338  0.12091967  0.45257400     0.01000
C649        C  0.08889356  0.13338389  0.47107232    -0.24300
C650        C  0.15018698  0.07743891  0.48885079    -0.28900
C651        C  0.14201738  0.05246893  0.47127910     0.06700
C652        C  0.12014049  0.04314554  0.44620000    -0.27600
H653        H  0.16201769  0.12620390  0.51708763     0.11400
H654        H  0.13568460  0.15088677  0.50861272     0.12500
H655        H  0.07571614  0.02791906  0.40385121     0.11600
H656        H  0.04846025  0.05179236  0.39712898     0.10800
H657        H  0.03752963  0.08767795  0.41797115     0.16200
H658        H  0.09365714  0.15097913  0.48800974     0.12100
H659        H  0.16684287  0.08455957  0.50841886     0.15000
H660        H  0.11340768  0.02360804  0.43316904     0.14800
C661        C  0.13887872  0.98760479  0.72315949    -0.18100
C662        C  0.14081992  0.98861839  0.76333969    -0.20300
C663        C  0.16374208  0.98919894  0.78038837     0.20400
C664        C  0.18448616  0.98783958  0.75695633    -0.03200
C665        C  0.18242207  0.98660452  0.71636640    -0.06300
C666        C  0.15975464  0.98698992  0.69942928     0.20600
C667        C  0.20340085  0.98577772  0.69265709     0.18800
C668        C  0.22589409  0.98553932  0.70998157    -0.17800
C669        C  0.22799675  0.98687513  0.75023979    -0.20000
C670        C  0.20763430  0.98847042  0.77390686     0.20300
C671        C  0.21035242  0.99144923  0.81398495    -0.33000
C672        C  0.19020516  0.99385661  0.83726795     0.01000
C673        C  0.16661520  0.99193498  0.82028850    -0.24300
C674        C  0.15871677  0.98752907  0.65896087    -0.28900
C675        C  0.17996003  0.98761074  0.63493104     0.06700
C676        C  0.20190292  0.98601369  0.65202998    -0.27600
H677        H  0.12126214  0.98775230  0.71056371     0.11400
H678        H  0.12466420  0.98951736  0.78099398     0.12500
H679        H  0.24213488  0.98481433  0.69230225     0.11600
H680        H  0.24581143  0.98713028  0.76278300     0.10800
H681        H  0.22836986  0.99237185  0.82686144     0.16200
H682        H  0.15079291  0.99343424  0.83790270     0.12100
H683        H  0.14152181  0.98839631  0.64605777     0.15000
H684        H  0.21833290  0.98608978  0.63370234     0.14800
C685        C  0.23209873  0.99312123  0.24881694    -0.18100
C686        C  0.22892725  0.98888221  0.20919158    -0.20300
C687        C  0.20501148  0.98588652  0.19211079     0.20400
C688        C  0.18378869  0.98647205  0.21563473    -0.03200
C689        C  0.18694522  0.99066681  0.25560163    -0.06300
C690        C  0.21133894  0.99429497  0.27219285     0.20600
C691        C  0.16579054  0.99153905  0.27881275     0.18800
C692        C  0.14154964  0.98781817  0.26208989    -0.17800
C693        C  0.13845840  0.98375157  0.22258250    -0.20000
C694        C  0.15954475  0.98330805  0.19914033     0.20300
C695        C  0.15702282  0.98047094  0.15927694    -0.33000
C696        C  0.17845863  0.98100849  0.13513559     0.01000
C697        C  0.20217825  0.98302056  0.15188799    -0.24300
C698        C  0.21456029  0.99914728  0.31177163    -0.28900
C699        C  0.19366127  0.00038726  0.33509762     0.06700
C700        C  0.16924896  0.99630972  0.31826875    -0.27600
H701        H  0.25090000  0.99566002  0.26113572     0.11400
H702        H  0.24529837  0.98816426  0.19185015     0.12500
H703        H  0.12506994  0.98831408  0.27950249     0.11600
H704        H  0.11967850  0.98126900  0.21024711     0.10800
H705        H  0.13849130  0.97857808  0.14677924     0.16200
H706        H  0.21881254  0.98351264  0.13352679     0.12100
H707        H  0.23337287  0.00193936  0.32436752     0.15000
H708        H  0.15293541  0.99703019  0.33580493     0.14800
C709        C  0.98802212  0.85327625  0.98426586    -0.18100
C710        C  0.01715185  0.86655298  0.97780783    -0.20300
C711        C  0.03280920  0.89537188  0.96775781     0.20400
C712        C  0.01890290  0.91095361  0.96431669    -0.03200
C713        C  0.98959013  0.89765944  0.97159326    -0.06300
C714        C  0.97397331  0.86860062  0.98128418     0.20600
C715        C  0.97588949  0.91342186  0.96855667     0.18800
C716        C  0.99145547  0.94222189  0.95854415    -0.17800
C717        C  0.02043772  0.95538610  0.95159688    -0.20000
C718        C  0.03433635  0.93995100  0.95440672     0.20300
C719        C  0.06351526  0.95326860  0.94952544    -0.33000
C720        C  0.07764279  0.93820457  0.95508541     0.01000
C721        C  0.06216789  0.90913428  0.96309440    -0.24300
C722        C  0.94457785  0.85531460  0.98601614    -0.28900
C723        C  0.93084570  0.87087983  0.98129332     0.06700
C724        C  0.94674369  0.89997124  0.97380640    -0.27600
H725        H  0.97646733  0.83097905  0.99156558     0.11400
H726        H  0.02745311  0.85426065  0.98077727     0.12500
H727        H  0.98118278  0.95456524  0.95591585     0.11600
H728        H  0.03201491  0.97769250  0.94426101     0.10800
H729        H  0.07540143  0.97577644  0.94487745     0.16200
H730        H  0.07303076  0.89763607  0.96891592     0.12100
H731        H  0.93239504  0.83280342  0.99042005     0.15000
H732        H  0.93615360  0.91187998  0.96899165     0.14800
C733        C  0.13330433  0.10151625  0.01881014    -0.18100
C734        C  0.11938263  0.11673003  0.01448007    -0.20300
C735        C  0.10016351  0.11082755  0.98598145     0.20400
C736        C  0.09536199  0.08991144  0.96085957    -0.03200
C737        C  0.10994624  0.07492271  0.96468662    -0.06300
C738        C  0.12858813  0.08040890  0.99433120     0.20600
C739        C  0.10508713  0.05377257  0.93990522     0.18800
C740        C  0.08561915  0.04773656  0.91163990    -0.17800
C741        C  0.07062654  0.06210259  0.90854159    -0.20000
C742        C  0.07510523  0.08312569  0.93322248     0.20300
C743        C  0.05860703  0.09625982  0.93256816    -0.33000
C744        C  0.06256701  0.11622510  0.95902660     0.01000
C745        C  0.08440401  0.12430564  0.98401143    -0.24300
C746        C  0.14138884  0.06404933  0.99995273    -0.28900
C747        C  0.13648145  0.04277593  0.97561772     0.06700
C748        C  0.11896313  0.03834762  0.94488054    -0.27600
H749        H  0.14748383  0.10601006  0.04169515     0.11400
H750        H  0.12304915  0.13260347  0.03422877     0.12500
H751        H  0.08144938  0.03137718  0.89255551     0.11600
H752        H  0.05519139  0.05644283  0.88723517     0.10800
H753        H  0.04148862  0.08946325  0.91382593     0.16200
H754        H  0.08736400  0.13946837  0.00473313     0.12100
H755        H  0.15472737  0.06746629  0.02372054     0.15000
H756        H  0.11485983  0.02176718  0.92623379     0.14800
C757        C  0.64321217  0.74143893  0.93636412    -0.18100
C758        C  0.61860631  0.72835632  0.91699487    -0.20300
C759        C  0.61971353  0.72657655  0.87656479     0.20400
C760        C  0.64595034  0.73861835  0.85542570    -0.03200
C761        C  0.67079146  0.75191748  0.87496233    -0.06300
C762        C  0.66943248  0.75307526  0.91569427     0.20600
C763        C  0.69696187  0.76359869  0.85377384     0.18800
C764        C  0.69811509  0.76255255  0.81323125    -0.17800
C765        C  0.67357483  0.74936811  0.79394189    -0.20000
C766        C  0.64741996  0.73703725  0.81481017     0.20300
C767        C  0.62277599  0.72294960  0.79573418    -0.33000
C768        C  0.59645179  0.71055519  0.81647260     0.01000
C769        C  0.59512914  0.71274502  0.85696166    -0.24300
C770        C  0.69425963  0.76531564  0.93506917    -0.28900
C771        C  0.72048842  0.77621160  0.91428791     0.06700
C772        C  0.72152482  0.77559392  0.87349049    -0.27600
H773        H  0.64171653  0.74220336  0.96762356     0.11400
H774        H  0.59868803  0.71938285  0.93372648     0.12500
H775        H  0.71803111  0.77159543  0.79646717     0.11600
H776        H  0.67506622  0.74855203  0.76268907     0.10800
H777        H  0.62414773  0.72166654  0.76456197     0.16200
H778        H  0.57502131  0.70332254  0.87332089     0.12100
H779        H  0.69309350  0.76559616  0.96644828     0.15000
H780        H  0.74150397  0.78407278  0.85701139     0.14800
C781        C  0.45902158  0.66860242  0.49839815    -0.18100
C782        C  0.46057224  0.66850544  0.53873476    -0.20300
C783        C  0.48400337  0.67003422  0.55545806     0.20400
C784        C  0.50631471  0.67219708  0.53121849    -0.03200
C785        C  0.50449552  0.67169451  0.49063140    -0.06300
C786        C  0.48069046  0.66980642  0.47423860     0.20600
C787        C  0.52630358  0.67267224  0.46655551     0.18800
C788        C  0.55013287  0.67513087  0.48315250    -0.17800
C789        C  0.55218499  0.67619697  0.52332450    -0.20000
C790        C  0.53024537  0.67436471  0.54755696     0.20300
C791        C  0.53158281  0.67401527  0.58792211    -0.33000
C792        C  0.50901749  0.67075417  0.61241573     0.01000
C793        C  0.48535574  0.66900433  0.59597237    -0.24300
C794        C  0.47881439  0.66883831  0.43400715    -0.28900
C795        C  0.50014395  0.66916007  0.40990010     0.06700
C796        C  0.52383481  0.67104943  0.42636785    -0.27600
H797        H  0.44066891  0.66729287  0.48613555     0.11400
H798        H  0.44337271  0.66705854  0.55686290     0.12500
H799        H  0.56711827  0.67608237  0.46509272     0.11600
H800        H  0.57073784  0.67796311  0.53552230     0.10800
H801        H  0.54990300  0.67531906  0.60032714     0.16200
H802        H  0.46801083  0.66675441  0.61466004     0.12100
H803        H  0.46045088  0.66737525  0.42152859     0.15000
H804        H  0.54044552  0.67156075  0.40791643     0.14800
C805        C  0.45328303  0.65434508  0.04095610    -0.18100
C806        C  0.44893403  0.64705844  0.00267289    -0.20300
C807        C  0.47070854  0.64856488  0.97845372     0.20400
C808        C  0.49701122  0.65707900  0.99295681    -0.03200
C809        C  0.50140716  0.66447375  0.03151479    -0.06300
C810        C  0.47941977  0.66308760  0.05560813     0.20600
C811        C  0.52777177  0.67321295  0.04594077     0.18800
C812        C  0.54942412  0.67430439  0.02188797    -0.17800
C813        C  0.54508710  0.66706480  0.98356272    -0.20000
C814        C  0.51904767  0.65866357  0.96874910     0.20300
C815        C  0.51495319  0.65284252  0.92977091    -0.33000
C816        C  0.48923826  0.64588001  0.91466997     0.01000
C817        C  0.46693066  0.64275150  0.93954077    -0.24300
C818        C  0.48373601  0.66974415  0.09423204    -0.28900
C819        C  0.50970572  0.67763452  0.10907408     0.06700
C820        C  0.53182261  0.68002159  0.08448294    -0.27600
H821        H  0.43619877  0.65311085  0.05911904     0.11400
H822        H  0.42862701  0.64055318  0.99185912     0.12500
H823        H  0.56973029  0.68080309  0.03270232     0.11600
H824        H  0.56217732  0.66832400  0.96538376     0.10800
H825        H  0.53218222  0.65511201  0.91079956     0.16200
H826        H  0.44688657  0.63691849  0.92821711     0.12100
H827        H  0.46665114  0.66792467  0.11308457     0.15000
H828        H  0.55183780  0.68579598  0.09586305     0.14800
C829        C  0.65009016  0.74201106  0.43169918    -0.18100
C830        C  0.62583003  0.73074534  0.41138459    -0.20300
C831        C  0.62746993  0.73056801  0.37066504     0.20400
C832        C  0.65381556  0.74116794  0.35039357    -0.03200
C833        C  0.67832528  0.75238657  0.37095875    -0.06300
C834        C  0.67650972  0.75320440  0.41175731     0.20600
C835        C  0.70463201  0.76292389  0.35061568     0.18800
C836        C  0.70622475  0.76185841  0.31008348    -0.17800
C837        C  0.68203928  0.75099955  0.28974081    -0.20000
C838        C  0.65573347  0.74079603  0.30952993     0.20300
C839        C  0.63139611  0.73037827  0.28912393    -0.33000
C840        C  0.60497453  0.72021499  0.30891498     0.01000
C841        C  0.60329394  0.72020466  0.34987709    -0.24300
C842        C  0.70108437  0.76507155  0.43182973    -0.28900
C843        C  0.72751497  0.77570409  0.41172738     0.06700
C844        C  0.72890809  0.77434552  0.37103964    -0.27600
H845        H  0.64818008  0.74211427  0.46304355     0.11400
H846        H  0.60577090  0.72246689  0.42751853     0.12500
H847        H  0.72624557  0.76966704  0.29401829     0.11600
H848        H  0.68394070  0.75071360  0.25842860     0.10800
H849        H  0.63308015  0.73035454  0.25773584     0.16200
H850        H  0.58313380  0.71209508  0.36568087     0.12100
H851        H  0.69957266  0.76550607  0.46316315     0.15000
H852        H  0.74898686  0.78220243  0.35508801     0.14800
C853        C  0.31063791  0.51636355  0.79873982    -0.18100
C854        C  0.33887762  0.52625435  0.78865239    -0.20300
C855        C  0.35292991  0.54705934  0.75816466     0.20400
C856        C  0.33813298  0.55684585  0.73597740    -0.03200
C857        C  0.30944237  0.54637638  0.74561533    -0.06300
C858        C  0.29589797  0.52675431  0.77804056     0.20600
C859        C  0.29476325  0.55678913  0.72436458     0.18800
C860        C  0.30869467  0.57701765  0.69307772    -0.17800
C861        C  0.33737944  0.58810094  0.68441154    -0.20000
C862        C  0.35246184  0.57871336  0.70638533     0.20300
C863        C  0.38181507  0.59262642  0.70223808    -0.33000
C864        C  0.39654847  0.58457336  0.72720464     0.01000
C865        C  0.38196398  0.56030396  0.75239902    -0.24300
C866        C  0.26819790  0.51866562  0.79009065    -0.28900
C867        C  0.25366046  0.52925858  0.76935589     0.06700
C868        C  0.26676136  0.54767000  0.73589576    -0.27600
H869        H  0.30052428  0.50115358  0.82343882     0.11400
H870        H  0.35006347  0.51864911  0.80600005     0.12500
H871        H  0.29765616  0.58513767  0.67638133     0.11600
H872        H  0.34793957  0.60471992  0.66147434     0.10800
H873        H  0.39308563  0.61161437  0.68321829     0.16200
H874        H  0.39347803  0.55441358  0.77193341     0.12100
H875        H  0.25796174  0.50425149  0.81558205     0.15000
H876        H  0.25548915  0.55591331  0.71995525     0.14800
C877        C  0.07369122  0.32482853  0.97909062    -0.18100
C878        C  0.08756196  0.35093753  0.95782278    -0.20300
C879        C  0.09925022  0.35380552  0.91979392     0.20400
C880        C  0.09799811  0.33029618  0.90379273    -0.03200
C881        C  0.08422835  0.30397855  0.92541526    -0.06300
C882        C  0.07133341  0.30104934  0.96287244     0.20600
C883        C  0.08193804  0.28032023  0.90856330     0.18800
C884        C  0.09422385  0.28324405  0.87100090    -0.17800
C885        C  0.10781960  0.30921876  0.84968425    -0.20000
C886        C  0.10940577  0.33277866  0.86551531     0.20300
C887        C  0.12130100  0.35847482  0.84315281    -0.33000
C888        C  0.12183345  0.38192760  0.85818754     0.01000
C889        C  0.11124398  0.37946296  0.89701684    -0.24300
C890        C  0.05460229  0.27420534  0.98200872    -0.28900
C891        C  0.05070739  0.25042947  0.96396307     0.06700
C892        C  0.06560752  0.25385872  0.92822101    -0.27600
H893        H  0.06409051  0.32310639  0.00782211     0.11400
H894        H  0.08845955  0.36877124  0.97075043     0.12500
H895        H  0.09257570  0.26525331  0.85760686     0.11600
H896        H  0.11650329  0.31073589  0.82038628     0.10800
H897        H  0.12935998  0.35992097  0.81348346     0.16200
H898        H  0.11149524  0.39725993  0.90916441     0.12100
H899        H  0.04258323  0.27165944  0.00899870     0.15000
H900        H  0.06209139  0.23554781  0.91379865     0.14800
C901        C  0.20131246  0.52253553  0.55743555    -0.18100
C902        C  0.20180692  0.52301242  0.51693046    -0.20300
C903        C  0.18082981  0.50088687  0.49884756     0.20400
C904        C  0.15953275  0.47769709  0.52150759    -0.03200
C905        C  0.15929556  0.47702828  0.56232463    -0.06300
C906        C  0.18004051  0.49975889  0.58037863     0.20600
C907        C  0.13811250  0.45379025  0.58502605     0.18800
C908        C  0.11759847  0.43129265  0.56688948    -0.17800
C909        C  0.11760201  0.43213752  0.52635363    -0.20000
C910        C  0.13826279  0.45538821  0.50340864     0.20300
C911        C  0.13794931  0.45689547  0.46275143    -0.33000
C912        C  0.15902185  0.48013983  0.44025717     0.01000
C913        C  0.18057427  0.50178250  0.45845290    -0.24300
C914        C  0.17914916  0.49931222  0.62102916    -0.28900
C915        C  0.15805782  0.47620946  0.64378899     0.06700
C916        C  0.13769294  0.45350135  0.62550445    -0.27600
H917        H  0.21749003  0.54002353  0.57081081     0.11400
H918        H  0.21836457  0.54088250  0.49973274     0.12500
H919        H  0.10132739  0.41320189  0.58408178     0.11600
H920        H  0.10133572  0.41472222  0.51297029     0.10800
H921        H  0.12163154  0.43996578  0.44864822     0.16200
H922        H  0.19696019  0.51972638  0.44109706     0.12100
H923        H  0.19505571  0.51672734  0.63489343     0.15000
H924        H  0.12130324  0.43551773  0.64276470     0.14800
C925        C  0.10253014  0.44959381  0.06639782    -0.18100
C926        C  0.10283781  0.45101304  0.02573435    -0.20300
C927        C  0.12793307  0.46755350  0.00294570     0.20400
C928        C  0.15292067  0.48278883  0.02147476    -0.03200
C929        C  0.15261963  0.48140179  0.06234168    -0.06300
C930        C  0.12730798  0.46471577  0.08488606     0.20600
C931        C  0.17774486  0.49653791  0.08060025     0.18800
C932        C  0.20289571  0.51263833  0.05798384    -0.17800
C933        C  0.20318690  0.51404369  0.01753891    -0.20000
C934        C  0.17834257  0.49929658  0.99918793     0.20300
C935        C  0.17869056  0.50066114  0.95881459    -0.33000
C936        C  0.15409687  0.48549933  0.93983396     0.01000
C937        C  0.12865254  0.46899432  0.96204613    -0.24300
C938        C  0.12735563  0.46322609  0.12549296    -0.28900
C939        C  0.15237107  0.47831244  0.14372516     0.06700
C940        C  0.17740199  0.49506579  0.12115993    -0.27600
H941        H  0.08293078  0.43660382  0.08339186     0.11400
H942        H  0.08348213  0.43910627  0.01212271     0.12500
H943        H  0.22234259  0.52413349  0.07157399     0.11600
H944        H  0.22288071  0.52663364  0.00057726     0.10800
H945        H  0.19847391  0.51350554  0.94214339     0.16200
H946        H  0.10962420  0.45722550  0.94763682     0.12100
H947        H  0.10794380  0.45021022  0.14293560     0.15000
H948        H  0.19673255  0.50631384  0.13516047     0.14800
C949        C  0.31582723  0.52823142  0.31483644    -0.18100
C950        C  0.34486500  0.54300771  0.30862176    -0.20300
C951        C  0.35771362  0.56109761  0.27501493     0.20400
C952        C  0.34125140  0.56309295  0.24616910    -0.03200
C953        C  0.31181143  0.54779381  0.25221945    -0.06300
C954        C  0.29915979  0.53110877  0.28738123     0.20600
C955        C  0.29514738  0.55063561  0.22435655     0.18800
C956        C  0.30809919  0.56776933  0.18988269    -0.17800
C957        C  0.33731279  0.58333469  0.18421174    -0.20000
C958        C  0.35416112  0.58180323  0.21268121     0.20300
C959        C  0.38339344  0.59993147  0.20979073    -0.33000
C960        C  0.39952713  0.59911065  0.23994520     0.01000
C961        C  0.38662779  0.57872565  0.27131081    -0.24300
C962        C  0.27028469  0.51905264  0.29565754    -0.28900
C963        C  0.25371771  0.52309646  0.26910595     0.06700
C964        C  0.26606781  0.53780058  0.23268061    -0.27600
H965        H  0.30644218  0.51531221  0.34177822     0.11400
H966        H  0.35730652  0.54120646  0.33093475     0.12500
H967        H  0.29564209  0.57005289  0.16800293     0.11600
H968        H  0.34670457  0.59728226  0.15812971     0.10800
H969        H  0.39313352  0.61594190  0.18591811     0.16200
H970        H  0.39898630  0.57831421  0.29478948     0.12100
H971        H  0.26085806  0.50766579  0.32363227     0.15000
H972        H  0.25341506  0.54120518  0.21220214     0.14800
C973        C  0.08748226  0.27913322  0.37722448    -0.18100
C974        C  0.10121267  0.30451824  0.35430446    -0.20300
C975        C  0.09839883  0.32731977  0.36446223     0.20400
C976        C  0.08167211  0.32444898  0.39832922    -0.03200
C977        C  0.06750382  0.29869002  0.42121794    -0.06300
C978        C  0.07041437  0.27593174  0.41053988     0.20600
C979        C  0.04954310  0.29539625  0.45382247     0.18800
C980        C  0.04654916  0.31811127  0.46382652    -0.17800
C981        C  0.06107154  0.34376892  0.44173227    -0.20000
C982        C  0.07854527  0.34710104  0.40884748     0.20300
C983        C  0.09256131  0.37256872  0.38600322    -0.33000
C984        C  0.10911513  0.37567953  0.35194917     0.01000
C985        C  0.11172181  0.35279702  0.34119486    -0.24300
C986        C  0.05486720  0.24993025  0.43190089    -0.28900
C987        C  0.03578924  0.24609240  0.46304050     0.06700
C988        C  0.03368238  0.26906375  0.47439576    -0.27600
H989        H  0.08976250  0.26179664  0.36841579     0.11400
H990        H  0.11390604  0.30625327  0.32845063     0.12500
H991        H  0.03274015  0.31596006  0.48854701     0.11600
H992        H  0.05830363  0.36092612  0.45005355     0.10800
H993        H  0.08992898  0.38984261  0.39420879     0.16200
H994        H  0.12424366  0.35488498  0.31494495     0.12100
H995        H  0.05566431  0.23200066  0.42209410     0.15000
H996        H  0.01818230  0.26593271  0.49730964     0.14800
C997        C  0.22041040  0.92527754  0.84909624    -0.18100
C998        C  0.23020374  0.91159354  0.82547482    -0.20300
C999        C  0.24542021  0.89964907  0.84096718     0.20400
C1000       C  0.25062956  0.90145030  0.88083040    -0.03200
C1001       C  0.24092734  0.91547241  0.90465332    -0.06300
C1002       C  0.22577423  0.92741642  0.88862783     0.20600
C1003       C  0.24721542  0.91836179  0.94412382     0.18800
C1004       C  0.26258015  0.90656282  0.95950794    -0.17800
C1005       C  0.27183037  0.89234242  0.93609482    -0.20000
C1006       C  0.26613281  0.88986326  0.89671604     0.20300
C1007       C  0.27626611  0.87655712  0.87283296    -0.33000
C1008       C  0.27167182  0.87497896  0.83282287     0.01000
C1009       C  0.25601651  0.88649430  0.81719280    -0.24300
C1010       C  0.21740665  0.94244258  0.91190712    -0.28900
C1011       C  0.22468579  0.94661171  0.95067021     0.06700
C1012       C  0.23921104  0.93411510  0.96687775    -0.27600
H1013       H  0.20901228  0.93459813  0.83626617     0.11400
H1014       H  0.22607947  0.91057605  0.79498172     0.12500
H1015       H  0.26773079  0.90860139  0.98958048     0.11600
H1016       H  0.28384389  0.88363421  0.94867760     0.10800
H1017       H  0.28852264  0.86811986  0.88539618     0.16200
H1018       H  0.25245606  0.88562924  0.78649817     0.12100
H1019       H  0.20672147  0.95252271  0.89904863     0.15000
H1020       H  0.24567685  0.93802088  0.99623560     0.14800
C1021       C  0.27918652  0.68017396  0.70300408    -0.18100
C1022       C  0.26273705  0.65145558  0.69956054    -0.20300
C1023       C  0.23786767  0.63545012  0.72311105     0.20400
C1024       C  0.22892376  0.64892780  0.74908969    -0.03200
C1025       C  0.24574935  0.67785095  0.75301932    -0.06300
C1026       C  0.27122117  0.69345140  0.73030020     0.20600
C1027       C  0.23775250  0.69080852  0.78113970     0.18800
C1028       C  0.21226951  0.67513884  0.80334178    -0.17800
C1029       C  0.19557796  0.64662552  0.79930132    -0.20000
C1030       C  0.20409361  0.63320125  0.77306638     0.20300
C1031       C  0.18938134  0.60407348  0.77270396    -0.33000
C1032       C  0.19938516  0.59019075  0.74948886     0.01000
C1033       C  0.22300073  0.60607457  0.72345228    -0.24300
C1034       C  0.28871105  0.72172664  0.73640409    -0.28900
C1035       C  0.28147375  0.73435297  0.76576470     0.06700
C1036       C  0.25581559  0.71886017  0.78765424    -0.27600
H1037       H  0.29862720  0.69183519  0.68517586     0.11400
H1038       H  0.26993312  0.64161034  0.67930902     0.12500
H1039       H  0.20561948  0.68476496  0.82469888     0.11600
H1040       H  0.17648088  0.63484768  0.81780631     0.10800
H1041       H  0.17161735  0.59191456  0.79350449     0.16200
H1042       H  0.23129196  0.59553974  0.70633636     0.12100
H1043       H  0.30859379  0.73360752  0.71958118     0.15000
H1044       H  0.25012750  0.72856798  0.81005965     0.14800
C1045       C  0.38481289  0.72479263  0.69324612    -0.18100
C1046       C  0.39583529  0.70680065  0.69665614    -0.20300
C1047       C  0.41787682  0.71261440  0.72040112     0.20400
C1048       C  0.42965463  0.73734981  0.73971147    -0.03200
C1049       C  0.41890600  0.75577982  0.73562420    -0.06300
C1050       C  0.39588785  0.74912147  0.71308636     0.20600
C1051       C  0.43011549  0.78000517  0.75600980     0.18800
C1052       C  0.45256358  0.78616733  0.77903508    -0.17800
C1053       C  0.46301665  0.76780270  0.78337276    -0.20000
C1054       C  0.45132186  0.74306314  0.76455116     0.20300
C1055       C  0.46023864  0.72350857  0.77117964    -0.33000
C1056       C  0.44831088  0.69873624  0.75245679     0.01000
C1057       C  0.42766665  0.69368302  0.72637399    -0.24300
C1058       C  0.38313964  0.76579131  0.71317033    -0.28900
C1059       C  0.39310150  0.78880378  0.73570418     0.06700
C1060       C  0.41734294  0.79650272  0.75547150    -0.27600
H1061       H  0.36716336  0.71931618  0.67585199     0.11400
H1062       H  0.38656310  0.68790172  0.68162240     0.12500
H1063       H  0.46141307  0.80473460  0.79479815     0.11600
H1064       H  0.47981178  0.77262876  0.80221851     0.10800
H1065       H  0.47621018  0.72734862  0.79117968     0.16200
H1066       H  0.41833978  0.67437911  0.71220878     0.12100
H1067       H  0.36396386  0.75933488  0.69891345     0.15000
H1068       H  0.42457384  0.81383836  0.77364547     0.14800
C1069       C  0.32684264  0.87282689  0.49402413    -0.18100
C1070       C  0.32562778  0.87372731  0.53434298    -0.20300
C1071       C  0.32454825  0.85207650  0.55869761     0.20400
C1072       C  0.32423604  0.82906282  0.54246629    -0.03200
C1073       C  0.32527523  0.82807311  0.50178829    -0.06300
C1074       C  0.32677767  0.85017154  0.47751329     0.20600
C1075       C  0.32511026  0.80515237  0.48542844     0.18800
C1076       C  0.32353346  0.78327261  0.50989099    -0.17800
C1077       C  0.32255406  0.78428207  0.55029427    -0.20000
C1078       C  0.32314005  0.80718641  0.56683154     0.20300
C1079       C  0.32276322  0.80868289  0.60725218    -0.33000
C1080       C  0.32320723  0.83166305  0.62351554     0.01000
C1081       C  0.32398537  0.85318700  0.59900981    -0.24300
C1082       C  0.32842125  0.84937461  0.43712917    -0.28900
C1083       C  0.32851174  0.82674355  0.42056746     0.06700
C1084       C  0.32670707  0.80462352  0.44490152    -0.27600
H1085       H  0.32812415  0.88998729  0.47574480     0.11400
H1086       H  0.32580785  0.89149236  0.54646953     0.12500
H1087       H  0.32324977  0.76546456  0.49776104     0.11600
H1088       H  0.32152063  0.76723566  0.56859568     0.10800
H1089       H  0.32187516  0.79188546  0.62601241     0.16200
H1090       H  0.32439987  0.87102884  0.61127869     0.12100
H1091       H  0.32965179  0.86643727  0.41860561     0.15000
H1092       H  0.32675062  0.78708448  0.43233719     0.14800
C1093       C  0.30381594  0.77905697  0.01169675    -0.18100
C1094       C  0.30056009  0.77952286  0.05188746    -0.20300
C1095       C  0.30657691  0.80438909  0.06819063     0.20400
C1096       C  0.31536609  0.82894659  0.04372488    -0.03200
C1097       C  0.31879303  0.82850781  0.00313746    -0.06300
C1098       C  0.31316162  0.80345254  0.98722450     0.20600
C1099       C  0.32806653  0.85310687  0.97857303     0.18800
C1100       C  0.33346697  0.87785879  0.99487457    -0.17800
C1101       C  0.32995775  0.87827515  0.03518859    -0.20000
C1102       C  0.32108957  0.85397218  0.05984408     0.20300
C1103       C  0.31834284  0.85431027  0.10036188    -0.33000
C1104       C  0.31058606  0.83010495  0.12490926     0.01000
C1105       C  0.30443049  0.80518580  0.10858319    -0.24300
C1106       C  0.31701717  0.80312717  0.94710643    -0.28900
C1107       C  0.32633639  0.82745061  0.92234737     0.06700
C1108       C  0.33179336  0.85244049  0.93823410    -0.27600
H1109       H  0.29924867  0.75963995  0.99976445     0.11400
H1110       H  0.29359765  0.76047909  0.07026455     0.12500
H1111       H  0.34050256  0.89690934  0.97647082     0.11600
H1112       H  0.33442690  0.89766522  0.04711852     0.10800
H1113       H  0.32313940  0.87362446  0.11285416     0.16200
H1114       H  0.29809771  0.78643065  0.12738032     0.12100
H1115       H  0.31267790  0.78376095  0.93517891     0.15000
H1116       H  0.33887206  0.87128479  0.91930798     0.14800
C1117       C  0.20637825  0.91364673  0.36282443    -0.18100
C1118       C  0.21523691  0.89912468  0.33936802    -0.20300
C1119       C  0.23417394  0.89104675  0.35247634     0.20400
C1120       C  0.24373400  0.89716357  0.39007752    -0.03200
C1121       C  0.23504071  0.91214368  0.41363756    -0.06300
C1122       C  0.21646393  0.92059749  0.39973211     0.20600
C1123       C  0.24604665  0.91988516  0.45019566     0.18800
C1124       C  0.26464878  0.91142557  0.46351581    -0.17800
C1125       C  0.27277435  0.89610317  0.44056115    -0.20000
C1126       C  0.26280867  0.88927191  0.40357759     0.20300
C1127       C  0.27236860  0.87556532  0.37940612    -0.33000
C1128       C  0.26382367  0.87024019  0.34123856     0.01000
C1129       C  0.24438433  0.87779401  0.32822969    -0.24300
C1130       C  0.20974750  0.93741257  0.42179065    -0.28900
C1131       C  0.22201509  0.94676157  0.45697171     0.06700
C1132       C  0.23962118  0.93735355  0.47155272    -0.27600
H1133       H  0.19221709  0.92013912  0.35161766     0.11400
H1134       H  0.20762780  0.89463203  0.31066347     0.12500
H1135       H  0.27333198  0.91709677  0.49141774     0.11600
H1136       H  0.28740129  0.89015130  0.45137195     0.10800
H1137       H  0.28752081  0.87017444  0.38982991     0.16200
H1138       H  0.23763633  0.87388627  0.29900170     0.12100
H1139       H  0.19687394  0.94535502  0.40988338     0.15000
H1140       H  0.24983192  0.94521549  0.49794298     0.14800
C1141       C  0.21236943  0.67769624  0.27139260    -0.18100
C1142       C  0.19678963  0.64890841  0.26768889    -0.20300
C1143       C  0.21013822  0.63350425  0.25939981     0.20400
C1144       C  0.23956816  0.64745511  0.25458258    -0.03200
C1145       C  0.25532464  0.67641106  0.25919784    -0.06300
C1146       C  0.24167821  0.69168580  0.26750096     0.20600
C1147       C  0.28474938  0.68991291  0.25638009     0.18800
C1148       C  0.29816858  0.67461326  0.24817098    -0.17800
C1149       C  0.28262195  0.64609577  0.24334354    -0.20000
C1150       C  0.25334361  0.63227784  0.24674464     0.20300
C1151       C  0.23773378  0.60328658  0.24475089    -0.33000
C1152       C  0.20851470  0.58887862  0.25159226     0.01000
C1153       C  0.19477731  0.60424481  0.25809865    -0.24300
C1154       C  0.25760082  0.72049046  0.27235568    -0.28900
C1155       C  0.28693697  0.73383425  0.27039201     0.06700
C1156       C  0.30026988  0.71837346  0.26233686    -0.27600
H1157       H  0.20146486  0.68894608  0.27796136     0.11400
H1158       H  0.17424869  0.63862426  0.27173071     0.12500
H1159       H  0.32074149  0.68466241  0.24585960     0.11600
H1160       H  0.29353486  0.63471720  0.23765584     0.10800
H1161       H  0.24851967  0.59149111  0.24146283     0.16200
H1162       H  0.17242290  0.59322870  0.26512924     0.12100
H1163       H  0.24726214  0.73234571  0.27854043     0.15000
H1164       H  0.32288345  0.72868357  0.26037428     0.14800
C1165       C  0.40229313  0.72107883  0.18407153    -0.18100
C1166       C  0.38970874  0.73768295  0.18032403    -0.20300
C1167       C  0.40038388  0.76284520  0.19813034     0.20400
C1168       C  0.42492610  0.77203200  0.21813459    -0.03200
C1169       C  0.43721024  0.75494757  0.22276771    -0.06300
C1170       C  0.42550488  0.72910585  0.20624195     0.20600
C1171       C  0.46005854  0.76290549  0.24608208     0.18800
C1172       C  0.47176005  0.78880171  0.26194645    -0.17800
C1173       C  0.45989004  0.80590317  0.25684506    -0.20000
C1174       C  0.43592422  0.79723868  0.23617610     0.20300
C1175       C  0.42127777  0.81195368  0.23653400    -0.33000
C1176       C  0.39504930  0.80113106  0.22092607     0.01000
C1177       C  0.38560069  0.77759133  0.19948078    -0.24300
C1178       C  0.43623324  0.71111606  0.21402287    -0.28900
C1179       C  0.45762437  0.71812043  0.23949809     0.06700
C1180       C  0.46983771  0.74424481  0.25478296    -0.27600
H1181       H  0.39311930  0.70135974  0.17102438     0.11400
H1182       H  0.37100723  0.73032772  0.16469665     0.12500
H1183       H  0.48951045  0.79540791  0.27945022     0.11600
H1184       H  0.46864773  0.82529162  0.27071945     0.10800
H1185       H  0.42848480  0.82996606  0.25339108     0.16200
H1186       H  0.36521616  0.76888736  0.18799430     0.12100
H1187       H  0.42671697  0.69085962  0.20238780     0.15000
H1188       H  0.48644802  0.74969370  0.27418982     0.14800
C1189       C  0.54638809  0.56319371  0.67872459    -0.18100
C1190       C  0.56286821  0.55114140  0.67015642    -0.20300
C1191       C  0.58098313  0.55053107  0.69708362     0.20400
C1192       C  0.58085252  0.56021145  0.73422303    -0.03200
C1193       C  0.56410647  0.57223066  0.74295742    -0.06300
C1194       C  0.54768275  0.57469932  0.71442363     0.20600
C1195       C  0.56557344  0.58381536  0.77896631     0.18800
C1196       C  0.58222443  0.58142944  0.80696356    -0.17800
C1197       C  0.59880912  0.56949872  0.79832411    -0.20000
C1198       C  0.59902264  0.55986430  0.76152702     0.20300
C1199       C  0.61852739  0.55186521  0.75052590    -0.33000
C1200       C  0.62050863  0.54470049  0.71238832     0.01000
C1201       C  0.60063993  0.54242188  0.68653543    -0.24300
C1202       C  0.53478188  0.59066384  0.72074017    -0.28900
C1203       C  0.53842008  0.60452625  0.75492328     0.06700
C1204       C  0.55231392  0.59959132  0.78496489    -0.27600
H1205       H  0.53361465  0.56468881  0.65669107     0.11400
H1206       H  0.56244226  0.54353767  0.64174046     0.12500
H1207       H  0.58343237  0.58996620  0.83484372     0.11600
H1208       H  0.61246263  0.56903191  0.81974498     0.10800
H1209       H  0.63331595  0.55275814  0.77102884     0.16200
H1210       H  0.60186409  0.53647911  0.65739059     0.12100
H1211       H  0.52381125  0.59422271  0.69768385     0.15000
H1212       H  0.55523822  0.61030902  0.81129336     0.14800
C1213       C  0.79097455  0.67447946  0.60686852    -0.18100
C1214       C  0.80259654  0.69859472  0.58117783    -0.20300
C1215       C  0.78989191  0.69923592  0.54690164     0.20400
C1216       C  0.76555423  0.67513051  0.53804048    -0.03200
C1217       C  0.75379520  0.65079955  0.56403994    -0.06300
C1218       C  0.76635652  0.65049973  0.59887545     0.20600
C1219       C  0.72891413  0.62711130  0.55576196     0.18800
C1220       C  0.71612702  0.62775519  0.52163037    -0.17800
C1221       C  0.72762360  0.65181173  0.49608297    -0.20000
C1222       C  0.75214712  0.67574041  0.50418706     0.20300
C1223       C  0.76237095  0.70076043  0.48051504    -0.33000
C1224       C  0.78584049  0.72517993  0.49018104     0.01000
C1225       C  0.80000337  0.72401447  0.52269925    -0.24300
C1226       C  0.75372656  0.62649001  0.62536996    -0.28900
C1227       C  0.72873342  0.60270652  0.61728710     0.06700
C1228       C  0.71676240  0.60335972  0.58211416    -0.27600
H1229       H  0.80100621  0.67475437  0.63334950     0.11400
H1230       H  0.82122901  0.71696732  0.58855736     0.12500
H1231       H  0.69681801  0.60981962  0.51513852     0.11600
H1232       H  0.71695007  0.65189590  0.47041189     0.10800
H1233       H  0.75073960  0.70184365  0.45649251     0.16200
H1234       H  0.81738183  0.74308570  0.53118446     0.12100
H1235       H  0.76318151  0.62642052  0.65229792     0.15000
H1236       H  0.69738856  0.58550089  0.57551758     0.14800
C1237       C  0.66137008  0.45930356  0.95978387    -0.18100
C1238       C  0.66249044  0.46063659  0.91924998    -0.20300
C1239       C  0.66361295  0.48347560  0.89796447     0.20400
C1240       C  0.66301712  0.50495380  0.91766370    -0.03200
C1241       C  0.66184378  0.50359424  0.95860231    -0.06300
C1242       C  0.66131300  0.48077221  0.97958692     0.20600
C1243       C  0.66186094  0.52531525  0.97846375     0.18800
C1244       C  0.66267794  0.54802202  0.95710277    -0.17800
C1245       C  0.66382886  0.54936492  0.91641075    -0.20000
C1246       C  0.66428849  0.52807166  0.89646395     0.20300
C1247       C  0.66677688  0.52981492  0.85571137    -0.33000
C1248       C  0.66830998  0.50886922  0.83592418     0.01000
C1249       C  0.66609323  0.48550699  0.85730919    -0.24300
C1250       C  0.66128246  0.48000124  0.02002167    -0.28900
C1251       C  0.66172959  0.50166671  0.04002217     0.06700
C1252       C  0.66161428  0.52413047  0.01922541    -0.27600
H1253       H  0.66091214  0.44164093  0.97564255     0.11400
H1254       H  0.66290327  0.44399868  0.90452216     0.12500
H1255       H  0.66275993  0.56488953  0.97183768     0.11600
H1256       H  0.66477959  0.56725966  0.90051808     0.10800
H1257       H  0.66806724  0.54776484  0.83946131     0.16200
H1258       H  0.66709074  0.46922045  0.84236556     0.12100
H1259       H  0.66111387  0.46250315  0.03598682     0.15000
H1260       H  0.66208472  0.54094281  0.03460446     0.14800
C1261       C  0.67910578  0.55332340  0.46029770    -0.18100
C1262       C  0.68180517  0.55618938  0.41964924    -0.20300
C1263       C  0.67330421  0.53270566  0.39843440     0.20400
C1264       C  0.66145075  0.50601148  0.41827110    -0.03200
C1265       C  0.65879038  0.50313308  0.45927437    -0.06300
C1266       C  0.66790594  0.52695573  0.48038765     0.20600
C1267       C  0.64761201  0.47649972  0.47911461     0.18800
C1268       C  0.63820232  0.45291845  0.45788781    -0.17800
C1269       C  0.64068711  0.45576528  0.41722502    -0.20000
C1270       C  0.65268731  0.48223884  0.39718849     0.20300
C1271       C  0.65630307  0.48536516  0.35648184    -0.33000
C1272       C  0.66844962  0.51195506  0.33650233     0.01000
C1273       C  0.67670644  0.53549830  0.35775274    -0.24300
C1274       C  0.66638930  0.52405511  0.52115791    -0.28900
C1275       C  0.65654260  0.49773599  0.54088103     0.06700
C1276       C  0.64676275  0.47401546  0.51978960    -0.27600
H1277       H  0.68616671  0.57177581  0.47601664     0.11400
H1278       H  0.69081616  0.57682021  0.40480634     0.12500
H1279       H  0.62930128  0.43230363  0.47274241     0.11600
H1280       H  0.63359263  0.43729054  0.40145230     0.10800
H1281       H  0.64964132  0.46706760  0.34039714     0.16200
H1282       H  0.68604838  0.55609837  0.34268791     0.12100
H1283       H  0.67405827  0.54235439  0.53743716     0.15000
H1284       H  0.63891864  0.45366135  0.53510722     0.14800
C1285       C  0.59033193  0.56993379  0.28968800    -0.18100
C1286       C  0.57496023  0.58330175  0.29764933    -0.20300
C1287       C  0.56384904  0.59184503  0.26744654     0.20400
C1288       C  0.56675055  0.58508295  0.22917078    -0.03200
C1289       C  0.58264541  0.57191345  0.22100848    -0.06300
C1290       C  0.59514717  0.56512259  0.25131810     0.20600
C1291       C  0.58736766  0.56705437  0.18229038     0.18800
C1292       C  0.57443760  0.57368877  0.15253561    -0.17800
C1293       C  0.55841783  0.58639975  0.16068134    -0.20000
C1294       C  0.55528244  0.59303103  0.19866362     0.20300
C1295       C  0.54270916  0.60923732  0.20610678    -0.33000
C1296       C  0.54243484  0.61874790  0.24332878     0.01000
C1297       C  0.55169503  0.60865517  0.27433791    -0.24300
C1298       C  0.61354484  0.55517289  0.24255998    -0.28900
C1299       C  0.62012114  0.55218814  0.20382494     0.06700
C1300       C  0.60604295  0.55708427  0.17388354    -0.27600
H1301       H  0.59947416  0.56442409  0.31339633     0.11400
H1302       H  0.57264607  0.58786833  0.32727049     0.12500
H1303       H  0.57744503  0.56987378  0.12273528     0.11600
H1304       H  0.54948246  0.59214394  0.13692797     0.10800
H1305       H  0.53518679  0.61641634  0.18200766     0.16200
H1306       H  0.55160220  0.61571650  0.30303301     0.12100
H1307       H  0.62396039  0.55104871  0.26589862     0.15000
H1308       H  0.61092098  0.55485841  0.14401532     0.14800
C1309       C  0.78634089  0.68010589  0.11573692    -0.18100
C1310       C  0.79696470  0.70482575  0.09173167    -0.20300
C1311       C  0.78753166  0.70466918  0.05447137     0.20400
C1312       C  0.76842204  0.67917452  0.04032813    -0.03200
C1313       C  0.75772875  0.65417038  0.06460082    -0.06300
C1314       C  0.76606954  0.65480876  0.10293436     0.20600
C1315       C  0.73750905  0.62885093  0.05132810     0.18800
C1316       C  0.72922151  0.62847575  0.01325084    -0.17800
C1317       C  0.73953580  0.65329278  0.98939704    -0.20000
C1318       C  0.75857317  0.67889026  0.00300531     0.20300
C1319       C  0.76647730  0.70428382  0.98120741    -0.33000
C1320       C  0.78417443  0.72977185  0.99635518     0.01000
C1321       C  0.79537321  0.72970891  0.03229024    -0.24300
C1322       C  0.75292279  0.63054212  0.12848843    -0.28900
C1323       C  0.73141991  0.60559738  0.11631377     0.06700
C1324       C  0.72478361  0.60470062  0.07704401    -0.27600
H1325       H  0.79323413  0.68095130  0.14486781     0.11400
H1326       H  0.81179558  0.72424091  0.10289221     0.12500
H1327       H  0.71389925  0.60912564  0.00245066     0.11600
H1328       H  0.73191379  0.65255961  0.96076759     0.10800
H1329       H  0.75724404  0.70427743  0.95403864     0.16200
H1330       H  0.80849719  0.74937090  0.04440006     0.12100
H1331       H  0.75860476  0.63141930  0.15831185     0.15000
H1332       H  0.70859580  0.58553467  0.06689579     0.14800
C1333       C  0.61351793  0.33692063  0.78248594    -0.18100
C1334       C  0.60157439  0.30812570  0.77967530    -0.20300
C1335       C  0.57916558  0.29410669  0.75636567     0.20400
C1336       C  0.56776255  0.30899553  0.73733883    -0.03200
C1337       C  0.57921294  0.33786214  0.74126690    -0.06300
C1338       C  0.60285554  0.35213514  0.76279117     0.20600
C1339       C  0.56812531  0.35275121  0.72149663     0.18800
C1340       C  0.54527260  0.33863650  0.69902090    -0.17800
C1341       C  0.53437325  0.31025759  0.69443524    -0.20000
C1342       C  0.54583203  0.29538009  0.71276283     0.20300
C1343       C  0.53644980  0.26744954  0.70579910    -0.33000
C1344       C  0.54804778  0.25269721  0.72410366     0.01000
C1345       C  0.56874282  0.26581435  0.75033507    -0.24300
C1346       C  0.61659123  0.38150446  0.76163680    -0.28900
C1347       C  0.60655362  0.39650714  0.73979866     0.06700
C1348       C  0.58146348  0.38182051  0.72177604    -0.27600
H1349       H  0.63155165  0.34741070  0.79927904     0.11400
H1350       H  0.61055121  0.29701227  0.79457690     0.12500
H1351       H  0.53654129  0.34980743  0.68365300     0.11600
H1352       H  0.51738442  0.30009168  0.67579503     0.10800
H1353       H  0.52033998  0.25722417  0.68586496     0.16200
H1354       H  0.57773084  0.25437627  0.76437610     0.12100
H1355       H  0.63635682  0.39271762  0.77460257     0.15000
H1356       H  0.57413867  0.39335855  0.70405405     0.14800
C1357       C  0.42278244  0.01022872  0.67042669    -0.18100
C1358       C  0.40769812  0.98116754  0.67507248    -0.20300
C1359       C  0.40220924  0.96711396  0.71214172     0.20400
C1360       C  0.41300399  0.98233569  0.74472313    -0.03200
C1361       C  0.42822337  0.01177570  0.74002476    -0.06300
C1362       C  0.43256561  0.02574142  0.70277511     0.20600
C1363       C  0.43769064  0.02720588  0.77277944     0.18800
C1364       C  0.43329459  0.01303313  0.80964138    -0.17800
C1365       C  0.41823897  0.98382199  0.81428432    -0.20000
C1366       C  0.40732651  0.96823980  0.78215522     0.20300
C1367       C  0.38964313  0.93906604  0.78691673    -0.33000
C1368       C  0.37742697  0.92404001  0.75465672     0.01000
C1369       C  0.38484366  0.93821910  0.71728271    -0.24300
C1370       C  0.44499492  0.05486871  0.69872480    -0.28900
C1371       C  0.45242313  0.07027802  0.73153850     0.06700
C1372       C  0.44980402  0.05638069  0.76833212    -0.27600
H1373       H  0.42598110  0.02059464  0.64165645     0.11400
H1374       H  0.39957586  0.96969518  0.64976284     0.12500
H1375       H  0.44067891  0.02455319  0.83510266     0.11600
H1376       H  0.41436949  0.97346156  0.84319720     0.10800
H1377       H  0.38400492  0.92842055  0.81583377     0.16200
H1378       H  0.37585711  0.92688498  0.69212535     0.12100
H1379       H  0.44686705  0.06529099  0.67038002     0.15000
H1380       H  0.45575937  0.06810477  0.79384953     0.14800
C1381       C  0.32417822  0.06378256  0.66425913    -0.18100
C1382       C  0.30201040  0.05105908  0.64045114    -0.20300
C1383       C  0.30536357  0.05995404  0.60078062     0.20400
C1384       C  0.33125895  0.08190087  0.58487518    -0.03200
C1385       C  0.35370074  0.09479573  0.60900073    -0.06300
C1386       C  0.35012296  0.08566568  0.64887862     0.20600
C1387       C  0.37970363  0.11665961  0.59319224     0.18800
C1388       C  0.38298409  0.12554915  0.55348924    -0.17800
C1389       C  0.36078184  0.11273910  0.52957729    -0.20000
C1390       C  0.33476984  0.09084562  0.54491091     0.20300
C1391       C  0.31228716  0.07767006  0.52108435    -0.33000
C1392       C  0.28633507  0.05557597  0.53676791     0.01000
C1393       C  0.28323701  0.04709370  0.57682703    -0.24300
C1394       C  0.37258284  0.09828607  0.67260869    -0.28900
C1395       C  0.39878729  0.11987857  0.65707898     0.06700
C1396       C  0.40200692  0.12905208  0.61725109    -0.27600
H1397       H  0.32103710  0.05642696  0.69473041     0.11400
H1398       H  0.28221498  0.03416824  0.65308240     0.12500
H1399       H  0.40277538  0.14243867  0.54088739     0.11600
H1400       H  0.36398761  0.11995800  0.49904550     0.10800
H1401       H  0.31503751  0.08452059  0.49044762     0.16200
H1402       H  0.26349127  0.03021112  0.58963791     0.12100
H1403       H  0.36976701  0.09090009  0.70303963     0.15000
H1404       H  0.42202562  0.14561859  0.60472470     0.14800
C1405       C  0.54352657  0.20259540  0.97189072    -0.18100
C1406       C  0.54161778  0.20114812  0.93169957    -0.20300
C1407       C  0.51628131  0.18267950  0.91674778     0.20400
C1408       C  0.49271247  0.16544519  0.94246683    -0.03200
C1409       C  0.49479525  0.16643914  0.98282146    -0.06300
C1410       C  0.52024401  0.18526085  0.99760601     0.20600
C1411       C  0.47135510  0.14851587  0.00836847     0.18800
C1412       C  0.44602644  0.13019051  0.99352692    -0.17800
C1413       C  0.44380959  0.12960745  0.95351087    -0.20000
C1414       C  0.46701221  0.14704248  0.92790448     0.20300
C1415       C  0.46493832  0.14604899  0.88793418    -0.33000
C1416       C  0.48833427  0.16264258  0.86214348     0.01000
C1417       C  0.51401982  0.18094719  0.87660090    -0.24300
C1418       C  0.52186131  0.18627566  0.03786492    -0.28900
C1419       C  0.49855828  0.16820864  0.06325463     0.06700
C1420       C  0.47352612  0.14926928  0.04838813    -0.27600
H1421       H  0.56322485  0.21710880  0.98286497     0.11400
H1422       H  0.55988535  0.21451754  0.91233530     0.12500
H1423       H  0.42789903  0.11640851  0.01287346     0.11600
H1424       H  0.42399689  0.11535666  0.94257408     0.10800
H1425       H  0.44517512  0.13167434  0.87693607     0.16200
H1426       H  0.53213241  0.19382992  0.85668701     0.12100
H1427       H  0.54130855  0.20083526  0.04944105     0.15000
H1428       H  0.45553227  0.13547497  0.06798573     0.14800
C1429       C  0.54128457  0.20602457  0.47079205    -0.18100
C1430       C  0.53811068  0.20562381  0.43082052    -0.20300
C1431       C  0.51243451  0.18716903  0.41673554     0.20400
C1432       C  0.48958480  0.16929574  0.44318382    -0.03200
C1433       C  0.49295145  0.16926732  0.48341296    -0.06300
C1434       C  0.51895219  0.18768858  0.49719766     0.20600
C1435       C  0.47052857  0.15031567  0.50971571     0.18800
C1436       C  0.44472072  0.13222819  0.49567955    -0.17800
C1437       C  0.44117988  0.13272003  0.45584815    -0.20000
C1438       C  0.46359173  0.15085694  0.42940265     0.20300
C1439       C  0.46074982  0.15003647  0.38934918    -0.33000
C1440       C  0.48379734  0.16666643  0.36276580     0.01000
C1441       C  0.50943829  0.18563571  0.37667444    -0.24300
C1442       C  0.52234209  0.18708187  0.53708918    -0.28900
C1443       C  0.50033257  0.16781013  0.56333659     0.06700
C1444       C  0.47444349  0.14951662  0.54950440    -0.27600
H1445       H  0.56136613  0.22029596  0.48101615     0.11400
H1446       H  0.55582075  0.21952310  0.41090675     0.12500
H1447       H  0.42737335  0.11746982  0.51545872     0.11600
H1448       H  0.42110745  0.11840377  0.44564525     0.10800
H1449       H  0.44087238  0.13539362  0.37893096     0.16200
H1450       H  0.52721614  0.19877316  0.35637102     0.12100
H1451       H  0.54236413  0.20124840  0.54761743     0.15000
H1452       H  0.45732519  0.13478818  0.56967620     0.14800
C1453       C  0.60828100  0.34047080  0.27834814    -0.18100
C1454       C  0.59597989  0.31169992  0.27570598    -0.20300
C1455       C  0.57399388  0.29802782  0.25169213     0.20400
C1456       C  0.56365284  0.31331116  0.23106160    -0.03200
C1457       C  0.57562714  0.34225808  0.23450362    -0.06300
C1458       C  0.59851609  0.35602969  0.25753590     0.20600
C1459       C  0.56582278  0.35767016  0.21303960     0.18800
C1460       C  0.54371534  0.34397324  0.18916840    -0.17800
C1461       C  0.53213344  0.31538884  0.18532819    -0.20000
C1462       C  0.54226574  0.29994479  0.20560163     0.20300
C1463       C  0.53216105  0.27166235  0.19986791    -0.33000
C1464       C  0.54261485  0.25651057  0.22019800     0.01000
C1465       C  0.56296368  0.26959044  0.24673764    -0.24300
C1466       C  0.61250768  0.38528027  0.25701830    -0.28900
C1467       C  0.60378954  0.40077803  0.23385478     0.06700
C1468       C  0.57969235  0.38676089  0.21343614    -0.27600
H1469       H  0.62585942  0.35065775  0.29602402     0.11400
H1470       H  0.60422830  0.30026263  0.29157829     0.12500
H1471       H  0.53600574  0.35555479  0.17242033     0.11600
H1472       H  0.51564624  0.30548178  0.16585706     0.10800
H1473       H  0.51649098  0.26151314  0.17933041     0.16200
H1474       H  0.57124573  0.25790813  0.26197667     0.12100
H1475       H  0.63165627  0.39606593  0.27156615     0.15000
H1476       H  0.57354692  0.39878196  0.19452004     0.14800
C1477       C  0.40717328  0.01086280  0.16998405    -0.18100
C1478       C  0.39130815  0.98182044  0.17508536    -0.20300
C1479       C  0.38911304  0.96766011  0.21113890     0.20400
C1480       C  0.40389426  0.98273411  0.24197007    -0.03200
C1481       C  0.41998909  0.01217714  0.23679349    -0.06300
C1482       C  0.42118354  0.02629529  0.20081871     0.20600
C1483       C  0.43372300  0.02751337  0.26810078     0.18800
C1484       C  0.43248764  0.01316923  0.30363800    -0.17800
C1485       C  0.41662479  0.98398206  0.30870761    -0.20000
C1486       C  0.40160784  0.96852695  0.27837691     0.20300
C1487       C  0.38342686  0.93940257  0.28418685    -0.33000
C1488       C  0.36742544  0.92446667  0.25397733     0.01000
C1489       C  0.37136620  0.93882667  0.21720894    -0.24300
C1490       C  0.43505088  0.05556876  0.19685054    -0.28900
C1491       C  0.44715335  0.07105733  0.22866556     0.06700
C1492       C  0.44714633  0.05684158  0.26389379    -0.27600
H1493       H  0.40786322  0.02130539  0.14218189     0.11400
H1494       H  0.38011349  0.97046815  0.15107101     0.12500
H1495       H  0.44315828  0.02457741  0.32791639     0.11600
H1496       H  0.41546182  0.97356410  0.33674500     0.10800
H1497       H  0.38073498  0.92870475  0.31257428     0.16200
H1498       H  0.35964951  0.92770044  0.19336691     0.12100
H1499       H  0.43458598  0.06619210  0.16982657     0.15000
H1500       H  0.45641563  0.06856326  0.28863311     0.14800
C1501       C  0.35501322  0.11120741  0.03126016    -0.18100
C1502       C  0.37738564  0.12373306  0.05494413    -0.20300
C1503       C  0.37422076  0.11473265  0.09458091     0.20400
C1504       C  0.34824160  0.09291694  0.11051882    -0.03200
C1505       C  0.32558670  0.08037774  0.08662335    -0.06300
C1506       C  0.32898185  0.08943010  0.04671066     0.20600
C1507       C  0.29963691  0.05861114  0.10264210     0.18800
C1508       C  0.29645736  0.04956550  0.14223005    -0.17800
C1509       C  0.31891643  0.06172621  0.16573963    -0.20000
C1510       C  0.34492328  0.08347388  0.15024611     0.20300
C1511       C  0.36760583  0.09591107  0.17375352    -0.33000
C1512       C  0.39360313  0.11794576  0.15823337     0.01000
C1513       C  0.39660607  0.12711221  0.11845381    -0.24300
C1514       C  0.30650047  0.07620253  0.02289270    -0.28900
C1515       C  0.28065290  0.05393112  0.03851236     0.06700
C1516       C  0.27742611  0.04581699  0.07873437    -0.27600
H1517       H  0.35813553  0.11847865  0.00076048     0.11400
H1518       H  0.39724796  0.14042481  0.04217722     0.12500
H1519       H  0.27660930  0.03289260  0.15494780     0.11600
H1520       H  0.31590586  0.05414373  0.19609897     0.10800
H1521       H  0.36500469  0.08838775  0.20409205     0.16200
H1522       H  0.41651478  0.14381621  0.10581838     0.12100
H1523       H  0.30933291  0.08281322  0.99215733     0.15000
H1524       H  0.25764985  0.02899274  0.09154777     0.14800
C1525       C  0.90153104  0.24209127  0.52525196    -0.18100
C1526       C  0.89245685  0.25682863  0.54771968    -0.20300
C1527       C  0.88855651  0.25166827  0.58837198     0.20400
C1528       C  0.89328518  0.23112211  0.60657512    -0.03200
C1529       C  0.90243645  0.21622999  0.58388343    -0.06300
C1530       C  0.90685099  0.22196269  0.54307022     0.20600
C1531       C  0.90805596  0.19629584  0.60215816     0.18800
C1532       C  0.90355245  0.19073666  0.64272899    -0.17800
C1533       C  0.89435456  0.20541082  0.66519662    -0.20000
C1534       C  0.88954452  0.22593026  0.64749364     0.20300
C1535       C  0.88147811  0.24161153  0.66999447    -0.33000
C1536       C  0.87702826  0.26237804  0.65206064     0.01000
C1537       C  0.88043458  0.26703786  0.61112257    -0.24300
C1538       C  0.91763120  0.20834541  0.52098561    -0.28900
C1539       C  0.92471148  0.18958849  0.53926340     0.06700
C1540       C  0.91919184  0.18314477  0.57974681    -0.27600
H1541       H  0.90485138  0.24678208  0.49398954     0.11400
H1542       H  0.88884968  0.27254281  0.53333333     0.12500
H1543       H  0.90765497  0.17539509  0.65717780     0.11600
H1544       H  0.89143711  0.20101794  0.69650831     0.10800
H1545       H  0.87884073  0.23775682  0.70139580     0.16200
H1546       H  0.87708841  0.28294069  0.59674900     0.12100
H1547       H  0.92212692  0.21365334  0.48987919     0.15000
H1548       H  0.92455998  0.16865507  0.59399164     0.14800
C1549       C  0.73502401  0.38998528  0.77480284    -0.18100
C1550       C  0.71883779  0.40272492  0.76875551    -0.20300
C1551       C  0.72715157  0.42441402  0.73945811     0.20400
C1552       C  0.75247389  0.43410063  0.71687783    -0.03200
C1553       C  0.76919551  0.42173339  0.72371829    -0.06300
C1554       C  0.76005557  0.39905295  0.75213348     0.20600
C1555       C  0.79415009  0.43089638  0.70047710     0.18800
C1556       C  0.80261567  0.45284505  0.67148758    -0.17800
C1557       C  0.78581562  0.46477987  0.66429210    -0.20000
C1558       C  0.76042761  0.45520634  0.68628202     0.20300
C1559       C  0.74242587  0.46565597  0.67751919    -0.33000
C1560       C  0.71717440  0.45588868  0.69996938     0.01000
C1561       C  0.71003571  0.43582520  0.73138890    -0.24300
C1562       C  0.77495839  0.38453540  0.75528349    -0.28900
C1563       C  0.79878491  0.39248866  0.73037200     0.06700
C1564       C  0.80900613  0.41649930  0.70448674    -0.27600
H1565       H  0.72762778  0.37260149  0.79661791     0.11400
H1566       H  0.69935016  0.39501809  0.78620129     0.12500
H1567       H  0.82175429  0.46009910  0.65339417     0.11600
H1568       H  0.79239634  0.48108464  0.64096442     0.10800
H1569       H  0.74791951  0.48118668  0.65336599     0.16200
H1570       H  0.69035688  0.42809453  0.74843071     0.12100
H1571       H  0.76655483  0.36554203  0.77430187     0.15000
H1572       H  0.82698426  0.42216615  0.68453288     0.14800
C1573       C  0.66037452  0.19019109  0.69573165    -0.18100
C1574       C  0.68924077  0.20795501  0.69037042    -0.20300
C1575       C  0.70241373  0.23149862  0.71158964     0.20400
C1576       C  0.68659538  0.23610643  0.74044059    -0.03200
C1577       C  0.65737417  0.21819537  0.74576578    -0.06300
C1578       C  0.64418243  0.19570249  0.72234619     0.20600
C1579       C  0.64115797  0.22409231  0.77225229     0.18800
C1580       C  0.65459946  0.24668212  0.79515971    -0.17800
C1581       C  0.68359246  0.26421455  0.79025645    -0.20000
C1582       C  0.69966534  0.25960027  0.76216587     0.20300
C1583       C  0.72823555  0.27878989  0.75397335    -0.33000
C1584       C  0.74363211  0.27524693  0.72350296     0.01000
C1585       C  0.73075503  0.25124592  0.70304677    -0.24300
C1586       C  0.61497341  0.18074382  0.72330774    -0.28900
C1587       C  0.59875157  0.18834495  0.74661207     0.06700
C1588       C  0.61181367  0.20892608  0.77272174    -0.27600
H1589       H  0.65055367  0.17285522  0.67775684     0.11400
H1590       H  0.70110505  0.20386488  0.66853546     0.12500
H1591       H  0.64257089  0.25145674  0.81580058     0.11600
H1592       H  0.69329915  0.28204239  0.80738688     0.10800
H1593       H  0.73811136  0.29736755  0.76967887     0.16200
H1594       H  0.74264687  0.24837004  0.67980250     0.12100
H1595       H  0.60491157  0.16518789  0.70271794     0.15000
H1596       H  0.59939329  0.21522707  0.79008784     0.14800
C1597       C  0.97169002  0.40931890  0.79916023    -0.18100
C1598       C  0.99927602  0.42233320  0.80984726    -0.20300
C1599       C  0.02108983  0.42629400  0.78338120     0.20400
C1600       C  0.01507637  0.41856971  0.74491149    -0.03200
C1601       C  0.98721986  0.40559243  0.73401341    -0.06300
C1602       C  0.96539597  0.40016973  0.76171108     0.20600
C1603       C  0.98105699  0.39639410  0.69624140     0.18800
C1604       C  0.00303762  0.40166477  0.66913498    -0.17800
C1605       C  0.03057624  0.41447264  0.67990998    -0.20000
C1606       C  0.03663657  0.42223022  0.71800475     0.20300
C1607       C  0.06355692  0.43194535  0.73028264    -0.33000
C1608       C  0.06937276  0.43764630  0.76933123     0.01000
C1609       C  0.04837033  0.43612298  0.79531529    -0.24300
C1610       C  0.93761548  0.38403618  0.75236969    -0.28900
C1611       C  0.93121277  0.37311817  0.71575016     0.06700
C1612       C  0.95302400  0.38043297  0.68718215    -0.27600
H1613       H  0.95513727  0.40550664  0.82068331     0.11400
H1614       H  0.00339285  0.42830391  0.83931987     0.12500
H1615       H  0.99883506  0.39495251  0.64000505     0.11600
H1616       H  0.04702861  0.41737099  0.65882311     0.10800
H1617       H  0.07982016  0.43365356  0.70977323     0.16200
H1618       H  0.05269653  0.44059918  0.82527769     0.12100
H1619       H  0.92084674  0.37825418  0.77459267     0.15000
H1620       H  0.94826670  0.37170219  0.65923211     0.14800
C1621       C  0.88407743  0.32913384  0.97570960    -0.18100
C1622       C  0.88217678  0.32429411  0.93633578    -0.20300
C1623       C  0.86197722  0.32647085  0.91527478     0.20400
C1624       C  0.84350895  0.33363588  0.93383749    -0.03200
C1625       C  0.84531466  0.33835400  0.97362757    -0.06300
C1626       C  0.86568611  0.33603842  0.99469168     0.20600
C1627       C  0.82638855  0.34480792  0.99249055     0.18800
C1628       C  0.80617091  0.34697767  0.97143286    -0.17800
C1629       C  0.80460175  0.34261258  0.93183358    -0.20000
C1630       C  0.82311554  0.33584709  0.91275836     0.20300
C1631       C  0.82165991  0.33129366  0.87302815    -0.33000
C1632       C  0.84019147  0.32430558  0.85429497     0.01000
C1633       C  0.86007641  0.32170148  0.87588646    -0.24300
C1634       C  0.86657354  0.33953911  0.03466712    -0.28900
C1635       C  0.84685443  0.34455932  0.05383947     0.06700
C1636       C  0.82737774  0.34798081  0.03239624    -0.27600
H1637       H  0.89970256  0.32712452  0.99143207     0.11400
H1638       H  0.89649738  0.31878649  0.92234582     0.12500
H1639       H  0.79142915  0.35183785  0.98566912     0.11600
H1640       H  0.78880035  0.34435052  0.91619447     0.10800
H1641       H  0.80621132  0.33325451  0.85675986     0.16200
H1642       H  0.87452188  0.31632653  0.86193691     0.12100
H1643       H  0.88139451  0.33663689  0.05120145     0.15000
H1644       H  0.81219484  0.35203893  0.04715496     0.14800
C1645       C  0.88563787  0.33021430  0.42984559    -0.18100
C1646       C  0.88639020  0.33205455  0.47012872    -0.20300
C1647       C  0.86396885  0.33115545  0.49202748     0.20400
C1648       C  0.84066950  0.32857271  0.47291923    -0.03200
C1649       C  0.83978552  0.32644415  0.43241630    -0.06300
C1650       C  0.86236052  0.32722446  0.41086771     0.20600
C1651       C  0.81621705  0.32335219  0.41357109     0.18800
C1652       C  0.79391619  0.32269573  0.43530512    -0.17800
C1653       C  0.79489290  0.32505036  0.47535299    -0.20000
C1654       C  0.81805899  0.32781067  0.49432108     0.20300
C1655       C  0.81865469  0.32926498  0.53450670    -0.33000
C1656       C  0.84125760  0.33094523  0.55414563     0.01000
C1657       C  0.86413847  0.33232293  0.53268751    -0.24300
C1658       C  0.86120363  0.32487533  0.37074227    -0.28900
C1659       C  0.83771766  0.32163602  0.35175490     0.06700
C1660       C  0.81532089  0.32093769  0.37336453    -0.27600
H1661       H  0.90318026  0.33091583  0.41356114     0.11400
H1662       H  0.90444279  0.33405086  0.48417027     0.12500
H1663       H  0.77570604  0.32034163  0.42133956     0.11600
H1664       H  0.77737519  0.32442563  0.49158784     0.10800
H1665       H  0.80106162  0.32856482  0.55067783     0.16200
H1666       H  0.88161805  0.33361275  0.54761376     0.12100
H1667       H  0.87873819  0.32566773  0.35427161     0.15000
H1668       H  0.79715145  0.31832192  0.35898159     0.14800
C1669       C  0.91747310  0.20712875  0.13968380    -0.18100
C1670       C  0.90572665  0.21997279  0.16132444    -0.20300
C1671       C  0.89669816  0.23694374  0.14261900     0.20400
C1672       C  0.89917408  0.24070130  0.10160034    -0.03200
C1673       C  0.91107289  0.22769267  0.07968099    -0.06300
C1674       C  0.92047388  0.21105844  0.09892855     0.20600
C1675       C  0.91405016  0.23174997  0.03867049     0.18800
C1676       C  0.90458971  0.24842004  0.01997599    -0.17800
C1677       C  0.89279625  0.26131456  0.04169716    -0.20000
C1678       C  0.89024733  0.25782414  0.08255747     0.20300
C1679       C  0.87938708  0.27147472  0.10472974    -0.33000
C1680       C  0.87719106  0.26812217  0.14578577     0.01000
C1681       C  0.88566754  0.25053120  0.16433444    -0.24300
C1682       C  0.93329559  0.19910796  0.07728434    -0.28900
C1683       C  0.93706723  0.20348565  0.03642919     0.06700
C1684       C  0.92694088  0.21954642  0.01726437    -0.27600
H1685       H  0.92454117  0.19436713  0.15489194     0.11400
H1686       H  0.90395440  0.21683922  0.19278032     0.12500
H1687       H  0.90659276  0.25174776  0.98853278     0.11600
H1688       H  0.88594551  0.27427928  0.02652350     0.10800
H1689       H  0.87289008  0.28490304  0.09000573     0.16200
H1690       H  0.88432018  0.24789991  0.19583026     0.12100
H1691       H  0.94079955  0.18670407  0.09245799     0.15000
H1692       H  0.92982379  0.22324330  0.98584637     0.14800
C1693       C  0.78304224  0.46433279  0.16396661    -0.18100
C1694       C  0.79984411  0.45248268  0.17138985    -0.20300
C1695       C  0.79310399  0.43307128  0.20348593     0.20400
C1696       C  0.77000183  0.42642243  0.22943373    -0.03200
C1697       C  0.75350358  0.43908803  0.22257449    -0.06300
C1698       C  0.75956152  0.45745064  0.18898564     0.20600
C1699       C  0.73015637  0.43228645  0.24817821     0.18800
C1700       C  0.72372686  0.41315412  0.28061575    -0.17800
C1701       C  0.73944760  0.39979630  0.28654266    -0.20000
C1702       C  0.76235531  0.40584892  0.26071908     0.20300
C1703       C  0.77636256  0.39028517  0.26362898    -0.33000
C1704       C  0.79828695  0.39579557  0.23612861     0.01000
C1705       C  0.80768573  0.41852039  0.20805514    -0.24300
C1706       C  0.74146252  0.46773605  0.18019186    -0.28900
C1707       C  0.71793138  0.46072136  0.20526622     0.06700
C1708       C  0.71294159  0.44372396  0.23986542    -0.27600
H1709       H  0.78811012  0.47847022  0.13821101     0.11400
H1710       H  0.81746980  0.45762976  0.15107482     0.12500
H1711       H  0.70586121  0.40770569  0.30060954     0.11600
H1712       H  0.73326699  0.38423509  0.31081070     0.10800
H1713       H  0.76861855  0.37245826  0.28477472     0.16200
H1714       H  0.82431276  0.42251359  0.18645728     0.12100
H1715       H  0.74542115  0.48086107  0.15362282     0.15000
H1716       H  0.69461897  0.43799619  0.25910416     0.14800
C1717       C  0.68533299  0.21643482  0.17756047    -0.18100
C1718       C  0.65656556  0.19836444  0.18428955    -0.20300
C1719       C  0.64095621  0.20315600  0.21289388     0.20400
C1720       C  0.65454894  0.22592237  0.23568744    -0.03200
C1721       C  0.68367331  0.24402863  0.22914356    -0.06300
C1722       C  0.69907732  0.23949144  0.19954516     0.20600
C1723       C  0.69719554  0.26716818  0.25136648     0.18800
C1724       C  0.68152361  0.27207699  0.27970144    -0.17800
C1725       C  0.65262701  0.25444568  0.28567599    -0.20000
C1726       C  0.63885388  0.23141675  0.26366725     0.20300
C1727       C  0.60952587  0.21513473  0.26699735    -0.33000
C1728       C  0.59580729  0.19378354  0.24226096     0.01000
C1729       C  0.61176673  0.18690828  0.21697565    -0.24300
C1730       C  0.72779253  0.25837881  0.19200150    -0.28900
C1731       C  0.74141788  0.28122592  0.21448587     0.06700
C1732       C  0.72603016  0.28532687  0.24430602    -0.27600
H1733       H  0.69677383  0.21256994  0.15479964     0.11400
H1734       H  0.64638664  0.18105191  0.16636100     0.12500
H1735       H  0.69156055  0.28987935  0.29681144     0.11600
H1736       H  0.64096351  0.25914416  0.30703814     0.10800
H1737       H  0.59736248  0.22105182  0.28561716     0.16200
H1738       H  0.60121101  0.17087739  0.19718023     0.12100
H1739       H  0.73955634  0.25536601  0.16872223     0.15000
H1740       H  0.73638065  0.30333311  0.26103022     0.14800
C1741       C  0.96574465  0.39074481  0.31712736    -0.18100
C1742       C  0.99311865  0.40433417  0.32855217    -0.20300
C1743       C  0.01572424  0.41898996  0.30075143     0.20400
C1744       C  0.01044203  0.42113448  0.26121981    -0.03200
C1745       C  0.98280708  0.40697010  0.24956896    -0.06300
C1746       C  0.96049949  0.39124725  0.27763083     0.20600
C1747       C  0.97769341  0.40713401  0.20965028     0.18800
C1748       C  0.00023764  0.42287760  0.18208865    -0.17800
C1749       C  0.02754657  0.43719922  0.19364952    -0.20000
C1750       C  0.03287259  0.43578751  0.23294416     0.20300
C1751       C  0.06026640  0.44677592  0.24393608    -0.33000
C1752       C  0.06565400  0.44232631  0.28245711     0.01000
C1753       C  0.04341913  0.42962011  0.31119696    -0.24300
C1754       C  0.93356417  0.37489609  0.26555687    -0.28900
C1755       C  0.92845875  0.37328425  0.22571488     0.06700
C1756       C  0.95045310  0.39032029  0.19790532    -0.27600
H1757       H  0.94873008  0.37885433  0.33905831     0.11400
H1758       H  0.99664527  0.40257352  0.35898530     0.12500
H1759       H  0.99684851  0.42342621  0.15141851     0.11600
H1760       H  0.04463023  0.44842136  0.17160107     0.10800
H1761       H  0.07744837  0.45642467  0.22169733     0.16200
H1762       H  0.04744275  0.42574696  0.34073138     0.12100
H1763       H  0.91664581  0.36200575  0.28723661     0.15000
H1764       H  0.94678036  0.38909672  0.16725735     0.14800
loop_ 
_geom_bond_atom_site_label_1 
_geom_bond_atom_site_label_2 
_geom_bond_distance 
_geom_bond_site_symmetry_2 
_ccdc_geom_bond_type 
O1           Ni7   1.910       .  S
O1           C22   1.270       .  A
O2          Ni25   1.913       .  S
O2           C11   1.273       .  A
O3           Ni7   1.884       .  S
O3          Ni25   1.887       .  S
O3          Ni19   1.892       .  S
O3           H26   0.967       .  S
C4           O21   1.270       .  A
C4           O13   1.273       .  A
C4         C1680   1.491       .  S
O5          Ni24   1.913       .  S
O5           C11   1.270       .  A
O6          Ni24   1.899       .  S
O6            C8   1.270       .  A
Ni7          O10   1.911       .  S
Ni7          O12   1.912       .  S
C8           O18   1.285       .  A
C8         C1755   1.489       .  S
O9          Ni25   1.949       .  S
O9           C15   1.289       .  A
O10          C15   1.278       .  A
C11        C1659   1.476       .  S
O12          C14   1.265       .  A
O13         Ni24   1.926       .  S
C14          O20   1.271       .  A
C14        C1731   1.480       .  S
C15        C1704   1.477       .  S
H16          O17   0.966       .  S
O17         Ni25   1.944       .  S
O17         Ni19   1.915       .  S
O17         Ni24   1.902       .  S
O18         Ni19   1.964       .  S
Ni19         O23   1.911       .  S
Ni19         O21   1.921       .  S
O20         Ni25   1.937       .  S
C22          O23   1.274       .  A
C22        C1635   1.470       .  S
O27         Ni33   1.917       .  S
O27          C48   1.270       .  A
O28         Ni51   1.913       .  S
O28          C37   1.271       .  A
O29         Ni33   1.889       .  S
O29         Ni51   1.889       .  S
O29         Ni45   1.883       .  S
O29          H52   0.967       .  S
C30          O47   1.261       .  A
C30          O39   1.272       .  A
C30        C1536   1.486       .  S
O31         Ni50   1.914       .  S
O31          C37   1.271       .  A
O32         Ni50   1.899       .  S
O32          C34   1.271       .  A
Ni33         O36   1.911       .  S
Ni33         O38   1.918       .  S
C34          O44   1.285       .  A
C34        C1611   1.484       .  S
O35         Ni51   1.943       .  S
O35          C41   1.288       .  A
O36          C41   1.278       .  A
C37        C1632   1.482       .  S
O38          C40   1.268       .  A
O39         Ni50   1.936       .  S
C40          O46   1.268       .  A
C40        C1584   1.482       .  S
C41        C1563   1.471       .  S
H42          O43   0.966       .  S
O43         Ni51   1.950       .  S
O43         Ni45   1.923       .  S
O43         Ni50   1.913       .  S
O44         Ni45   1.962       .  S
Ni45         O49   1.915       .  S
Ni45         O47   1.888       .  S
O46         Ni51   1.932       .  S
C48          O49   1.271       .  A
C48        C1656   1.479       .  S
O53         Ni59   1.911       .  S
O53          C74   1.266       .  A
O54         Ni77   1.901       .  S
O54          C63   1.270       .  A
O55         Ni59   1.906       .  S
O55         Ni77   1.892       .  S
O55         Ni71   1.884       .  S
O55          H78   0.966       .  S
C56          O73   1.261       .  A
C56          O65   1.274       .  A
C56        C1512   1.495       .  S
O57         Ni76   1.919       .  S
O57          C63   1.273       .  A
O58         Ni76   1.900       .  S
O58          C60   1.272       .  A
Ni59         O62   1.902       .  S
Ni59         O64   1.911       .  S
C60          O70   1.289       .  A
C60        C1491   1.489       .  S
O61         Ni77   1.948       .  S
O61          C67   1.285       .  A
O62          C67   1.273       .  A
C63        C1440   1.476       .  S
O64          C66   1.266       .  A
O65         Ni76   1.960       .  S
C66          O72   1.269       .  A
C66        C1464   1.473       .  S
C67        C1728   1.475       .  S
H68          O69   0.966       .  S
O69         Ni77   1.955       .  S
O69         Ni71   1.902       .  S
O69         Ni76   1.919       .  S
O70         Ni71   1.975       .  S
Ni71         O75   1.891       .  S
Ni71         O73   1.898       .  S
O72         Ni77   1.928       .  S
C74          O75   1.265       .  A
C74        C1419   1.461       .  S
O79         Ni85   1.930       .  S
O79         C100   1.273       .  A
O80        Ni103   1.889       .  S
O80          C89   1.265       .  A
O81         Ni85   1.900       .  S
O81        Ni103   1.888       .  S
O81         Ni97   1.882       .  S
O81         H104   0.967       .  S
C82          O99   1.259       .  A
C82          O91   1.272       .  A
C82        C1395   1.494       .  S
O83        Ni102   1.912       .  S
O83          C89   1.272       .  A
O84        Ni102   1.893       .  S
O84          C86   1.271       .  A
Ni85         O88   1.921       .  S
Ni85         O90   1.918       .  S
C86          O96   1.290       .  A
C86        C1371   1.486       .  S
O87        Ni103   1.932       .  S
O87          C93   1.281       .  A
O88          C93   1.277       .  A
C89        C1416   1.465       .  S
O90          C92   1.268       .  A
O91        Ni102   1.952       .  S
C92          O98   1.267       .  A
C92        C1344   1.476       .  S
C93        C1587   1.474       .  S
H94          O95   0.966       .  S
O95        Ni103   1.955       .  S
O95         Ni97   1.901       .  S
O95        Ni102   1.919       .  S
O96         Ni97   1.972       .  S
Ni97        O101   1.889       .  S
Ni97         O99   1.899       .  S
O98        Ni103   1.928       .  S
C100        O101   1.265       .  A
C100       C1443   1.471       .  S
O105       Ni111   1.925       .  S
O105        C126   1.274       .  A
O106       Ni129   1.900       .  S
O106        C115   1.269       .  A
O107       Ni111   1.889       .  S
O107       Ni129   1.882       .  S
O107       Ni123   1.880       .  S
O107        H130   0.967       .  S
C108        O125   1.263       .  A
C108        O117   1.274       .  A
C108       C1323   1.491       .  S
O109       Ni128   1.927       .  S
O109        C115   1.274       .  A
O110       Ni128   1.908       .  S
O110        C112   1.273       .  A
Ni111       O114   1.918       .  S
Ni111       O116   1.923       .  S
C112        O122   1.283       .  A
C112       C1299   1.492       .  S
O113       Ni129   1.939       .  S
O113        C119   1.288       .  A
O114        C119   1.279       .  A
C115       C1272   1.479       .  S
O116        C118   1.268       .  A
O117       Ni128   1.941       .  S
C118        O124   1.266       .  A
C118       C1707   1.483       .  S
C119       C1467   1.470       .  S
H120        O121   0.966       .  S
O121       Ni129   1.943       .  S
O121       Ni123   1.917       .  S
O121       Ni128   1.909       .  S
O122       Ni123   1.958       .  S
Ni123       O127   1.896       .  S
Ni123       O125   1.895       .  S
O124       Ni129   1.927       .  S
C126        O127   1.268       .  A
C126       C1251   1.470       .  S
O131       Ni137   1.933       .  S
O131        C152   1.277       .  A
O132       Ni155   1.903       .  S
O132        C141   1.271       .  A
O133       Ni137   1.887       .  S
O133       Ni155   1.887       .  S
O133       Ni149   1.891       .  S
O133        H156   0.966       .  S
C134        O151   1.271       .  A
C134        O143   1.275       .  A
C134       C1227   1.498       .  S
O135       Ni154   1.926       .  S
O135        C141   1.272       .  A
O136       Ni154   1.898       .  S
O136        C138   1.270       .  A
Ni137       O140   1.926       .  S
Ni137       O142   1.922       .  S
C138        O148   1.278       .  A
C138       C1200   1.475       .  S
O139       Ni155   1.941       .  S
O139        C145   1.286       .  A
O140        C145   1.279       .  A
C141       C1248   1.478       .  S
O142        C144   1.270       .  A
O143       Ni154   1.941       .  S
C144        O150   1.268       .  A
C144       C1560   1.472       .  S
C145       C1347   1.476       .  S
H146        O147   0.966       .  S
O147       Ni155   1.940       .  S
O147       Ni149   1.906       .  S
O147       Ni154   1.910       .  S
O148       Ni149   1.937       .  S
Ni149       O153   1.898       .  S
Ni149       O151   1.917       .  S
O150       Ni155   1.919       .  S
C152        O153   1.271       .  A
C152       C1275   1.471       .  S
O157       Ni163   1.929       .  S
O157        C178   1.274       .  A
O158       Ni181   1.904       .  S
O158        C167   1.271       .  A
O159       Ni163   1.894       .  S
O159       Ni181   1.887       .  S
O159       Ni175   1.888       .  S
O159        H182   0.966       .  S
C160        O177   1.266       .  A
C160        O169   1.276       .  A
C160       C1128   1.494       .  S
O161       Ni180   1.931       .  S
O161        C167   1.273       .  A
O162       Ni180   1.896       .  S
O162        C164   1.270       .  A
Ni163       O166   1.901       .  S
Ni163       O168   1.920       .  S
C164        O174   1.282       .  A
C164       C1488   1.496       .  S
O165       Ni181   1.958       .  S
O165        C171   1.289       .  A
O166        C171   1.276       .  A
C167       C1104   1.476       .  S
O168        C170   1.271       .  A
O169       Ni180   1.945       .  S
C170        O176   1.273       .  A
C170       C1155   1.485       .  S
C171       C1176   1.478       .  S
H172        O173   0.966       .  S
O173       Ni181   1.943       .  S
O173       Ni175   1.914       .  S
O173       Ni180   1.917       .  S
O174       Ni175   1.962       .  S
Ni175       O179   1.893       .  S
Ni175       O177   1.902       .  S
O176       Ni181   1.938       .  S
C178        O179   1.267       .  A
C178       C1083   1.475       .  S
O183       Ni189   1.932       .  S
O183        C204   1.275       .  A
O184       Ni207   1.899       .  S
O184        C193   1.268       .  A
O185       Ni189   1.898       .  S
O185       Ni207   1.888       .  S
O185       Ni201   1.882       .  S
O185        H208   0.967       .  S
C186        O203   1.262       .  A
C186        O195   1.272       .  A
C186       C1008   1.492       .  S
O187       Ni206   1.918       .  S
O187        C193   1.271       .  A
O188       Ni206   1.896       .  S
O188        C190   1.271       .  A
Ni189       O192   1.913       .  S
Ni189       O194   1.926       .  S
C190        O200   1.282       .  A
C190       C1368   1.488       .  S
O191       Ni207   1.941       .  S
O191        C197   1.286       .  A
O192        C197   1.278       .  A
C193       C1080   1.474       .  S
O194        C196   1.270       .  A
O195       Ni206   1.941       .  S
C196        O202   1.267       .  A
C196       C1035   1.484       .  S
C197       C1059   1.471       .  S
H198        O199   0.966       .  S
O199       Ni207   1.953       .  S
O199       Ni201   1.918       .  S
O199       Ni206   1.923       .  S
O200       Ni201   1.955       .  S
Ni201       O205   1.892       .  S
Ni201       O203   1.892       .  S
O202       Ni207   1.927       .  S
C204        O205   1.264       .  A
C204       C1107   1.476       .  S
O209       Ni215   1.914       .  S
O209        C230   1.270       .  A
O210       Ni233   1.907       .  S
O210        C219   1.272       .  A
O211       Ni215   1.881       .  S
O211       Ni233   1.883       .  S
O211       Ni227   1.898       .  S
O211        H234   0.973       .  S
C212        O229   1.269       .  A
C212        O221   1.273       .  A
C212        C984   1.490       .  S
O213       Ni232   1.916       .  S
O213        C219   1.270       .  A
O214       Ni232   1.896       .  S
O214        C216   1.270       .  A
Ni215       O218   1.913       .  S
Ni215       O220   1.910       .  S
C216        O226   1.281       .  A
C216       C1752   1.477       .  S
O217       Ni233   1.961       .  S
O217        C223   1.293       .  A
O218        C223   1.278       .  A
C219        C939   1.468       .  S
O220        C222   1.268       .  A
O221       Ni232   1.935       .  S
C222        O228   1.268       .  A
C222        C963   1.482       .  S
C223       C1152   1.481       .  S
H224        O225   0.971       .  S
O225       Ni233   1.949       .  S
O225       Ni227   1.910       .  S
O225       Ni232   1.905       .  S
O226       Ni227   1.952       .  S
Ni227       O231   1.904       .  S
Ni227       O229   1.915       .  S
O228       Ni233   1.929       .  S
C230        O231   1.272       .  A
C230        C912   1.467       .  S
O235       Ni241   1.921       .  S
O235        C256   1.276       .  A
O236       Ni259   1.910       .  S
O236        C245   1.273       .  A
O237       Ni241   1.875       .  S
O237       Ni259   1.879       .  S
O237       Ni253   1.893       .  S
O237        H260   0.967       .  S
C238        O255   1.270       .  A
C238        O247   1.272       .  A
C238        C888   1.498       .  S
O239       Ni258   1.911       .  S
O239        C245   1.270       .  A
O240       Ni258   1.901       .  S
O240        C242   1.272       .  A
Ni241       O244   1.924       .  S
Ni241       O246   1.924       .  S
C242        O252   1.285       .  A
C242       C1608   1.487       .  S
O243       Ni259   1.952       .  S
O243        C249   1.293       .  A
O244        C249   1.282       .  A
C245        C915   1.474       .  S
O246        C248   1.268       .  A
O247       Ni258   1.928       .  S
C248        O254   1.262       .  A
C248        C867   1.473       .  S
C249       C1032   1.481       .  S
H250        O251   0.966       .  S
O251       Ni259   1.948       .  S
O251       Ni253   1.909       .  S
O251       Ni258   1.892       .  S
O252       Ni253   1.956       .  S
Ni253       O257   1.906       .  S
Ni253       O255   1.929       .  S
O254       Ni259   1.912       .  S
C256        O257   1.274       .  A
C256        C936   1.477       .  S
O261       Ni267   1.928       .  S
O261        C282   1.274       .  A
O262       Ni285   1.898       .  S
O262        C271   1.268       .  A
O263       Ni267   1.897       .  S
O263       Ni285   1.882       .  S
O263       Ni279   1.883       .  S
O263        H286   0.967       .  S
C264        O281   1.261       .  A
C264        O273   1.270       .  A
C264        C840   1.498       .  S
O265       Ni284   1.912       .  S
O265        C271   1.270       .  A
O266       Ni284   1.887       .  S
O266        C268   1.272       .  A
Ni267       O270   1.927       .  S
Ni267       O272   1.917       .  S
C268        O278   1.294       .  A
C268       C1296   1.494       .  S
O269       Ni285   1.941       .  S
O269        C275   1.285       .  A
O270        C275   1.279       .  A
C271        C819   1.471       .  S
O272        C274   1.267       .  A
O273       Ni284   1.945       .  S
C274        O280   1.268       .  A
C274       C1179   1.477       .  S
C275        C960   1.480       .  S
H276        O277   0.966       .  S
O277       Ni285   1.963       .  S
O277       Ni279   1.916       .  S
O277       Ni284   1.917       .  S
O278       Ni279   1.989       .  S
Ni279       O283   1.899       .  S
Ni279       O281   1.907       .  S
O280       Ni285   1.934       .  S
C282        O283   1.270       .  A
C282        C795   1.475       .  S
O287       Ni293   1.922       .  S
O287        C308   1.271       .  A
O288       Ni311   1.906       .  S
O288        C297   1.268       .  A
O289       Ni293   1.908       .  S
O289       Ni311   1.904       .  S
O289       Ni305   1.892       .  S
O289        H312   0.966       .  S
C290        O307   1.264       .  A
C290        O299   1.271       .  A
C290        C768   1.490       .  S
O291       Ni310   1.910       .  S
O291        C297   1.268       .  A
O292       Ni310   1.896       .  S
O292        C294   1.270       .  A
Ni293       O296   1.914       .  S
Ni293       O298   1.911       .  S
C294        O304   1.281       .  A
C294       C1203   1.477       .  S
O295       Ni311   1.923       .  S
O295        C301   1.275       .  A
O296        C301   1.274       .  A
C297        C792   1.476       .  S
O298        C300   1.267       .  A
O299       Ni310   1.937       .  S
C300        O306   1.269       .  A
C300       C1056   1.472       .  S
C301        C864   1.465       .  S
H302        O303   0.966       .  S
O303       Ni311   1.944       .  S
O303       Ni305   1.919       .  S
O303       Ni310   1.919       .  S
O304       Ni305   1.959       .  S
Ni305       O309   1.896       .  S
Ni305       O307   1.908       .  S
O306       Ni311   1.933       .  S
C308        O309   1.265       .  A
C308        C816   1.473       .  S
O313       Ni319   1.928       .  S
O313        C334   1.277       .  A
O314       Ni337   1.900       .  S
O314        C323   1.272       .  A
O315       Ni319   1.877       .  S
O315       Ni337   1.883   1_554  S
O315       Ni331   1.888       .  S
O315        H338   0.967       .  S
C316        O333   1.270       .  A
C316        O325   1.279   1_554  A
C316       C1515   1.498       .  S
O317       Ni336   1.944       .  S
O317        C323   1.278   1_545  A
O318       Ni336   1.907   1_565  S
O318        C320   1.268       .  A
Ni319       O322   1.923       .  S
Ni319       O324   1.920   1_565  S
C320        O330   1.283       .  A
C320       C1011   1.479       .  S
O321       Ni337   1.938       .  S
O321        C327   1.288       .  A
O322        C327   1.280   1_554  A
C323        C672   1.484       .  S
O324        C326   1.269   1_554  A
O325       Ni336   1.948       .  S
C326        O332   1.269       .  A
C326        C747   1.484       .  S
C327        C720   1.470       .  S
H328        O329   0.966       .  S
O329       Ni337   1.932   1_545  S
O329       Ni331   1.903   1_546  S
O329       Ni336   1.902       .  S
O330       Ni331   1.958   1_556  S
Ni331       O335   1.913       .  S
Ni331       O333   1.912   1_565  S
O332       Ni337   1.933   1_545  S
C334        O335   1.276       .  A
C334        C696   1.483       .  S
O339       Ni345   1.928   1_545  S
O339        C360   1.276   1_545  A
O340       Ni363   1.912   1_545  S
O340        C349   1.274       .  A
O341       Ni345   1.882       .  S
O341       Ni363   1.886       .  S
O341       Ni357   1.879   1_565  S
O341        H364   0.967       .  S
C342        O359   1.266       .  A
C342        O351   1.276       .  A
C342       C1392   1.497       .  S
O343       Ni362   1.936       .  S
O343        C349   1.276       .  A
O344       Ni362   1.907   1_565  S
O344        C346   1.271       .  A
Ni345       O348   1.913       .  S
Ni345       O350   1.921   1_565  S
C346        O356   1.283       .  A
C346       C1131   1.478       .  S
O347       Ni363   1.940       .  S
O347        C353   1.288       .  A
O348        C353   1.280       .  A
C349        C699   1.490       .  S
O350        C352   1.269       .  A
O351       Ni362   1.946       .  S
C352        O358   1.271       .  A
C352        C651   1.483       .  S
C353        C624   1.473       .  S
H354        O355   0.966       .  S
O355       Ni363   1.941   1_545  S
O355       Ni357   1.916       .  S
O355       Ni362   1.912       .  S
O356       Ni357   1.954   1_565  S
Ni357       O361   1.911   1_545  S
Ni357       O359   1.903       .  S
O358       Ni363   1.936   1_545  S
C360        O361   1.274       .  A
C360        C675   1.481       .  S
O365       Ni371   1.912   1_655  S
O365        C386   1.270       .  A
O366       Ni389   1.908   1_655  S
O366        C375   1.272       .  A
O367       Ni371   1.887       .  S
O367       Ni389   1.885   1_554  S
O367       Ni383   1.900   1_455  S
O367        H390   0.967       .  S
C368        O385   1.274       .  A
C368        O377   1.275   1_554  A
C368       C1683   1.493       .  S
O369       Ni388   1.916       .  S
O369        C375   1.269       .  A
O370       Ni388   1.894   1_455  S
O370        C372   1.267       .  A
Ni371       O374   1.904       .  S
Ni371       O376   1.913   1_455  S
C372        O382   1.280   1_556  A
C372        C891   1.478       .  S
O373       Ni389   1.964       .  S
O373        C379   1.292       .  A
O374        C379   1.278   1_554  A
C375        C552   1.474       .  S
O376        C378   1.268   1_554  A
O377       Ni388   1.932       .  S
C378        O384   1.273       .  A
C378        C600   1.494       .  S
C379        C744   1.484       .  S
H380        O381   0.966       .  S
O381       Ni389   1.945   1_655  S
O381       Ni383   1.907   1_556  S
O381       Ni388   1.910       .  S
O382       Ni383   1.959   1_455  S
Ni383       O387   1.902   1_655  S
Ni383       O385   1.920       .  S
O384       Ni389   1.937   1_655  S
C386        O387   1.271   1_655  A
C386        C576   1.469       .  S
O391       Ni397   1.920   1_655  S
O391        C412   1.273       .  A
O392       Ni415   1.898       .  S
O392        C401   1.268       .  A
O393       Ni397   1.888       .  S
O393       Ni415   1.884   1_455  S
O393       Ni409   1.893   1_455  S
O393        H416   0.966       .  S
C394        O411   1.270       .  A
C394        O403   1.274       .  A
C394       C1539   1.479       .  S
O395       Ni414   1.916       .  S
O395        C401   1.270       .  A
O396       Ni414   1.894       .  S
O396        C398   1.266   1_655  A
Ni397       O400   1.911       .  S
Ni397       O402   1.918   1_455  S
C398        O408   1.280       .  A
C398        C987   1.474       .  S
O399       Ni415   1.947   1_455  S
O399        C405   1.287       .  A
O400        C405   1.278       .  A
C401        C579   1.466       .  S
O402        C404   1.270       .  A
O403       Ni414   1.925       .  S
C404        O410   1.271       .  A
C404        C531   1.494       .  S
C405        C648   1.475       .  S
H406        O407   0.966       .  S
O407       Ni415   1.935       .  S
O407       Ni409   1.904       .  S
O407       Ni414   1.907       .  S
O408       Ni409   1.955   1_455  S
Ni409       O413   1.899       .  S
Ni409       O411   1.909       .  S
O410       Ni415   1.930       .  S
C412        O413   1.270       .  A
C412        C555   1.471       .  S
O417       Ni423   1.918       .  S
O417        C438   1.273       .  A
O418       Ni441   1.910   1_554  S
O418        C427   1.272       .  A
O419       Ni423   1.885       .  S
O419       Ni441   1.883       .  S
O419       Ni435   1.896       .  S
O419        H442   0.967       .  S
C420        O437   1.271       .  A
C420        O429   1.273       .  A
C420        C771   1.494       .  S
O421       Ni440   1.918       .  S
O421        C427   1.272       .  A
O422       Ni440   1.903       .  S
O422        C424   1.270   1_554  A
Ni423       O426   1.912       .  S
Ni423       O428   1.918       .  S
C424        O434   1.282       .  A
C424       C1320   1.477       .  S
O425       Ni441   1.949       .  S
O425        C431   1.289       .  A
O426        C431   1.277       .  A
C427        C504   1.481       .  S
O428        C430   1.271       .  A
O429       Ni440   1.931   1_556  S
C430        O436   1.271       .  A
C430        C603   1.496       .  S
C431        C723   1.474       .  S
H432        O433   0.966       .  S
O433       Ni441   1.947       .  S
O433       Ni435   1.913       .  S
O433       Ni440   1.907   1_556  S
O434       Ni435   1.954       .  S
Ni435       O439   1.911       .  S
Ni435       O437   1.921       .  S
O436       Ni441   1.933       .  S
C438        O439   1.273       .  A
C438        C480   1.475       .  S
O443       Ni449   1.926       .  S
O443        C464   1.276       .  A
O444       Ni467   1.908       .  S
O444        C453   1.271       .  A
O445       Ni449   1.887       .  S
O445       Ni467   1.888       .  S
O445       Ni461   1.896       .  S
O445        H468   0.967       .  S
C446        O463   1.274       .  A
C446        O455   1.277       .  A
C446        C843   1.496       .  S
O447       Ni466   1.932       .  S
O447        C453   1.274       .  A
O448       Ni466   1.899       .  S
O448        C450   1.267       .  A
Ni449       O452   1.916       .  S
Ni449       O454   1.923       .  S
C450        O460   1.281       .  A
C450       C1224   1.474       .  S
O451       Ni467   1.937       .  S
O451        C457   1.285       .  A
O452        C457   1.277       .  A
C453        C483   1.483       .  S
O454        C456   1.272       .  A
O455       Ni466   1.936       .  S
C456        O462   1.271       .  A
C456        C528   1.495       .  S
C457        C627   1.467       .  S
H458        O459   0.966       .  S
O459       Ni467   1.936       .  S
O459       Ni461   1.905       .  S
O459       Ni466   1.903       .  S
O460       Ni461   1.954       .  S
Ni461       O465   1.909       .  S
Ni461       O463   1.923       .  S
O462       Ni467   1.930       .  S
C464        O465   1.274       .  A
C464        C507   1.477       .  S
C469        C470   1.399       .  A
C469        C474   1.404       .  A
C469        H485   1.083       .  S
C470        C471   1.402       .  A
C470        H486   1.084       .  S
C471        C481   1.405       .  A
C471        C472   1.414       .  A
C472        C478   1.409       .  A
C472        C473   1.411       .  A
C473        C475   1.413       .  A
C473        C474   1.409       .  A
C474        C482   1.401       .  A
C475        C484   1.404       .  A
C475        C476   1.403       .  A
C476        C477   1.398       .  A
C476        H487   1.084       .  S
C477        C478   1.404       .  A
C477        H488   1.084       .  S
C478        C479   1.398       .  A
C479        C480   1.408       .  A
C479        H489   1.085       .  S
C480        C481   1.404       .  A
C481        H490   1.084       .  S
C482        C483   1.410       .  A
C482        H491   1.084       .  S
C483        C484   1.407       .  A
C484        H492   1.084       .  S
C493        C494   1.399       .  A
C493        C498   1.404       .  A
C493        H509   1.084       .  S
C494        C495   1.403       .  A
C494        H510   1.084       .  S
C495        C505   1.404       .  A
C495        C496   1.414       .  A
C496        C502   1.408       .  A
C496        C497   1.411       .  A
C497        C499   1.414       .  A
C497        C498   1.409       .  A
C498        C506   1.400       .  A
C499        C508   1.404       .  A
C499        C500   1.402       .  A
C500        C501   1.398       .  A
C500        H511   1.084       .  S
C501        C502   1.404       .  A
C501        H512   1.084       .  S
C502        C503   1.398       .  A
C503        C504   1.410       .  A
C503        H513   1.084       .  S
C504        C505   1.406       .  A
C505        H514   1.084       .  S
C506        C507   1.408       .  A
C506        H515   1.084       .  S
C507        C508   1.404       .  A
C508        H516   1.084       .  S
C517        C518   1.401   1_545  A
C517        C522   1.404       .  A
C517        H533   1.083       .  S
C518        C519   1.404       .  A
C518        H534   1.083       .  S
C519        C529   1.407       .  A
C519        C520   1.412       .  A
C520        C526   1.411       .  A
C520        C521   1.417       .  A
C521        C523   1.412   1_565  A
C521        C522   1.411   1_565  A
C522        C530   1.407       .  A
C523        C532   1.408       .  A
C523        C524   1.405   1_545  A
C524        C525   1.402       .  A
C524        H535   1.084       .  S
C525        C526   1.405       .  A
C525        H536   1.084       .  S
C526        C527   1.408       .  A
C527        C528   1.413       .  A
C527        H537   1.084       .  S
C528        C529   1.409       .  A
C529        H538   1.084       .  S
C530        C531   1.411       .  A
C530        H539   1.084       .  S
C531        C532   1.410       .  A
C532        H540   1.084       .  S
C541        C542   1.398       .  A
C541        C546   1.402       .  A
C541        H557   1.084       .  S
C542        C543   1.404       .  A
C542        H558   1.084       .  S
C543        C553   1.398       .  A
C543        C544   1.409       .  A
C544        C550   1.413       .  A
C544        C545   1.407       .  A
C545        C547   1.409       .  A
C545        C546   1.413       .  A
C546        C554   1.401       .  A
C547        C556   1.396       .  A
C547        C548   1.403       .  A
C548        C549   1.396       .  A
C548        H559   1.084       .  S
C549        C550   1.401       .  A
C549        H560   1.084       .  S
C550        C551   1.398       .  A
C551        C552   1.402       .  A
C551        H561   1.084       .  S
C552        C553   1.410       .  A
C553        H562   1.084       .  S
C554        C555   1.404       .  A
C554        H563   1.084       .  S
C555        C556   1.406       .  A
C556        H564   1.084       .  S
C565        C566   1.396       .  A
C565        C570   1.403   1_455  A
C565        H581   1.084       .  S
C566        C567   1.402       .  A
C566        H582   1.084       .  S
C567        C577   1.398       .  A
C567        C568   1.413   1_455  A
C568        C574   1.409       .  A
C568        C569   1.405       .  A
C569        C571   1.413       .  A
C569        C570   1.409       .  A
C570        C578   1.394       .  A
C571        C580   1.398       .  A
C571        C572   1.401       .  A
C572        C573   1.396       .  A
C572        H583   1.084       .  S
C573        C574   1.403       .  A
C573        H584   1.084       .  S
C574        C575   1.395       .  A
C575        C576   1.407       .  A
C575        H585   1.084       .  S
C576        C577   1.402   1_655  A
C577        H586   1.084       .  S
C578        C579   1.406       .  A
C578        H587   1.084       .  S
C579        C580   1.402       .  A
C580        H588   1.084       .  S
C589        C590   1.400   1_565  A
C589        C594   1.404       .  A
C589        H605   1.083       .  S
C590        C591   1.404       .  A
C590        H606   1.084       .  S
C591        C601   1.406       .  A
C591        C592   1.411       .  A
C592        C598   1.412   1_556  A
C592        C593   1.418   1_545  A
C593        C595   1.411       .  A
C593        C594   1.411       .  A
C594        C602   1.407       .  A
C595        C604   1.409       .  A
C595        C596   1.405   1_556  A
C596        C597   1.403       .  A
C596        H607   1.084       .  S
C597        C598   1.405   1_565  A
C597        H608   1.083       .  S
C598        C599   1.411       .  A
C599        C600   1.412   1_554  A
C599        H609   1.084       .  S
C600        C601   1.409       .  A
C601        H610   1.084       .  S
C602        C603   1.410       .  A
C602        H611   1.084       .  S
C603        C604   1.413       .  A
C604        H612   1.084   1_556  S
C613        C614   1.402   1_655  A
C613        C618   1.405       .  A
C613        H629   1.083       .  S
C614        C615   1.403       .  A
C614        H630   1.083       .  S
C615        C625   1.410       .  A
C615        C616   1.416       .  A
C616        C622   1.408       .  A
C616        C617   1.412   1_455  A
C617        C619   1.414       .  A
C617        C618   1.410       .  A
C618        C626   1.405       .  A
C619        C628   1.403       .  A
C619        C620   1.403       .  A
C620        C621   1.397   1_655  A
C620        H631   1.084       .  S
C621        C622   1.403       .  A
C621        H632   1.084       .  S
C622        C623   1.395       .  A
C623        C624   1.409       .  A
C623        H633   1.085       .  S
C624        C625   1.404       .  A
C625        H634   1.084       .  S
C626        C627   1.407       .  A
C626        H635   1.084       .  S
C627        C628   1.403       .  A
C628        H636   1.085       .  S
C637        C638   1.400       .  A
C637        C642   1.403       .  A
C637        H653   1.083       .  S
C638        C639   1.405       .  A
C638        H654   1.084       .  S
C639        C649   1.403       .  A
C639        C640   1.409       .  A
C640        C646   1.415       .  A
C640        C641   1.416       .  A
C641        C643   1.409       .  A
C641        C642   1.415       .  A
C642        C650   1.410       .  A
C643        C652   1.404       .  A
C643        C644   1.405       .  A
C644        C645   1.401       .  A
C644        H655   1.084       .  S
C645        C646   1.403       .  A
C645        H656   1.084       .  S
C646        C647   1.410       .  A
C647        C648   1.404       .  A
C647        H657   1.084       .  S
C648        C649   1.408       .  A
C649        H658   1.085       .  S
C650        C651   1.405       .  A
C650        H659   1.084       .  S
C651        C652   1.409       .  A
C652        H660   1.085       .  S
C661        C662   1.397       .  A
C661        C666   1.403       .  A
C661        H677   1.084       .  S
C662        C663   1.402       .  A
C662        H678   1.084       .  S
C663        C673   1.400       .  A
C663        C664   1.411       .  A
C664        C670   1.411       .  A
C664        C665   1.412       .  A
C665        C667   1.413       .  A
C665        C666   1.410       .  A
C666        C674   1.399       .  A
C667        C676   1.407       .  A
C667        C668   1.404       .  A
C668        C669   1.401       .  A
C668        H679   1.083       .  S
C669        C670   1.405       .  A
C669        H680   1.083       .  S
C670        C671   1.406       .  A
C671        C672   1.410       .  A
C671        H681   1.084       .  S
C672        C673   1.407       .  A
C673        H682   1.084       .  S
C674        C675   1.408       .  A
C674        H683   1.085       .  S
C675        C676   1.406       .  A
C676        H684   1.084       .  S
C685        C686   1.402       .  A
C685        C690   1.406       .  A
C685        H701   1.083       .  S
C686        C687   1.404       .  A
C686        H702   1.083       .  S
C687        C697   1.411       .  A
C687        C688   1.414       .  A
C688        C694   1.408       .  A
C688        C689   1.414       .  A
C689        C691   1.413       .  A
C689        C690   1.409       .  A
C690        C698   1.407       .  A
C691        C700   1.403       .  A
C691        C692   1.402       .  A
C692        C693   1.397       .  A
C692        H703   1.084       .  S
C693        C694   1.403       .  A
C693        H704   1.084       .  S
C694        C695   1.397       .  A
C695        C696   1.408       .  A
C695        H705   1.085       .  S
C696        C697   1.408       .  A
C697        H706   1.084       .  S
C698        C699   1.413   1_565  A
C698        H707   1.084   1_565  S
C699        C700   1.406   1_545  A
C700        H708   1.084       .  S
C709        C710   1.403   1_655  A
C709        C714   1.405       .  A
C709        H725   1.083       .  S
C710        C711   1.405       .  A
C710        H726   1.083       .  S
C711        C721   1.409       .  A
C711        C712   1.412       .  A
C712        C718   1.412       .  A
C712        C713   1.415   1_455  A
C713        C715   1.410       .  A
C713        C714   1.414       .  A
C714        C722   1.412       .  A
C715        C724   1.400       .  A
C715        C716   1.404       .  A
C716        C717   1.398   1_655  A
C716        H727   1.084       .  S
C717        C718   1.403       .  A
C717        H728   1.084       .  S
C718        C719   1.402       .  A
C719        C720   1.405       .  A
C719        H729   1.084       .  S
C720        C721   1.406       .  A
C721        H730   1.084       .  S
C722        C723   1.407       .  A
C722        H731   1.084       .  S
C723        C724   1.406       .  A
C724        H732   1.085       .  S
C733        C734   1.398       .  A
C733        C738   1.402   1_554  A
C733        H749   1.084       .  S
C734        C735   1.404   1_554  A
C734        H750   1.084       .  S
C735        C745   1.398       .  A
C735        C736   1.407       .  A
C736        C742   1.416       .  A
C736        C737   1.416       .  A
C737        C739   1.409       .  A
C737        C738   1.415       .  A
C738        C746   1.406       .  A
C739        C748   1.408       .  A
C739        C740   1.407       .  A
C740        C741   1.405       .  A
C740        H751   1.084       .  S
C741        C742   1.405       .  A
C741        H752   1.083       .  S
C742        C743   1.417       .  A
C743        C744   1.408       .  A
C743        H753   1.084       .  S
C744        C745   1.409       .  A
C745        H754   1.085   1_556  S
C746        C747   1.403       .  A
C746        H755   1.084   1_556  S
C747        C748   1.411       .  A
C748        H756   1.084       .  S
C757        C758   1.403       .  A
C757        C762   1.406       .  A
C757        H773   1.083       .  S
C758        C759   1.405       .  A
C758        H774   1.084       .  S
C759        C769   1.410       .  A
C759        C760   1.412       .  A
C760        C766   1.411       .  A
C760        C761   1.416       .  A
C761        C763   1.411       .  A
C761        C762   1.411       .  A
C762        C770   1.410       .  A
C763        C772   1.405       .  A
C763        C764   1.404       .  A
C764        C765   1.399       .  A
C764        H775   1.084       .  S
C765        C766   1.404       .  A
C765        H776   1.084       .  S
C766        C767   1.403       .  A
C767        C768   1.409       .  A
C767        H777   1.084       .  S
C768        C769   1.411       .  A
C769        H778   1.084       .  S
C770        C771   1.411       .  A
C770        H779   1.084       .  S
C771        C772   1.410       .  A
C772        H780   1.084       .  S
C781        C782   1.398       .  A
C781        C786   1.404       .  A
C781        H797   1.084       .  S
C782        C783   1.403       .  A
C782        H798   1.084       .  S
C783        C793   1.403       .  A
C783        C784   1.413       .  A
C784        C790   1.409       .  A
C784        C785   1.409       .  A
C785        C787   1.413       .  A
C785        C786   1.409       .  A
C786        C794   1.398       .  A
C787        C796   1.402       .  A
C787        C788   1.402       .  A
C788        C789   1.397       .  A
C788        H799   1.084       .  S
C789        C790   1.404       .  A
C789        H800   1.084       .  S
C790        C791   1.397       .  A
C791        C792   1.408       .  A
C791        H801   1.084       .  S
C792        C793   1.405       .  A
C793        H802   1.084       .  S
C794        C795   1.408       .  A
C794        H803   1.084       .  S
C795        C796   1.404       .  A
C796        H804   1.084       .  S
C805        C806   1.396       .  A
C805        C810   1.402       .  A
C805        H821   1.084       .  S
C806        C807   1.403   1_554  A
C806        H822   1.084   1_554  S
C807        C817   1.397       .  A
C807        C808   1.410       .  A
C808        C814   1.413       .  A
C808        C809   1.407   1_556  A
C809        C811   1.410       .  A
C809        C810   1.413       .  A
C810        C818   1.399       .  A
C811        C820   1.397       .  A
C811        C812   1.403       .  A
C812        C813   1.397   1_554  A
C812        H823   1.084       .  S
C813        C814   1.402       .  A
C813        H824   1.084       .  S
C814        C815   1.400       .  A
C815        C816   1.405       .  A
C815        H825   1.084       .  S
C816        C817   1.406       .  A
C817        H826   1.084       .  S
C818        C819   1.404       .  A
C818        H827   1.084       .  S
C819        C820   1.407       .  A
C820        H828   1.084       .  S
C829        C830   1.403       .  A
C829        C834   1.405       .  A
C829        H845   1.083       .  S
C830        C831   1.406       .  A
C830        H846   1.083       .  S
C831        C841   1.410       .  A
C831        C832   1.411       .  A
C832        C838   1.412       .  A
C832        C833   1.418       .  A
C833        C835   1.410       .  A
C833        C834   1.412       .  A
C834        C842   1.412       .  A
C835        C844   1.406       .  A
C835        C836   1.404       .  A
C836        C837   1.401       .  A
C836        H847   1.084       .  S
C837        C838   1.404       .  A
C837        H848   1.083       .  S
C838        C839   1.409       .  A
C839        C840   1.410       .  A
C839        H849   1.084       .  S
C840        C841   1.413       .  A
C841        H850   1.084       .  S
C842        C843   1.412       .  A
C842        H851   1.084       .  S
C843        C844   1.411       .  A
C844        H852   1.084       .  S
C853        C854   1.397       .  A
C853        C858   1.402       .  A
C853        H869   1.083       .  S
C854        C855   1.403       .  A
C854        H870   1.084       .  S
C855        C865   1.397       .  A
C855        C856   1.409       .  A
C856        C862   1.415       .  A
C856        C857   1.411       .  A
C857        C859   1.410       .  A
C857        C858   1.415       .  A
C858        C866   1.404       .  A
C859        C868   1.403       .  A
C859        C860   1.405       .  A
C860        C861   1.401       .  A
C860        H871   1.084       .  S
C861        C862   1.404       .  A
C861        H872   1.084       .  S
C862        C863   1.408       .  A
C863        C864   1.404       .  A
C863        H873   1.085       .  S
C864        C865   1.403       .  A
C865        H874   1.085       .  S
C866        C867   1.401       .  A
C866        H875   1.084       .  S
C867        C868   1.409       .  A
C868        H876   1.085       .  S
C877        C878   1.404       .  A
C877        C882   1.405       .  A
C877        H893   1.083   1_556  S
C878        C879   1.406       .  A
C878        H894   1.084       .  S
C879        C889   1.411       .  A
C879        C880   1.411       .  A
C880        C886   1.412       .  A
C880        C881   1.418       .  A
C881        C883   1.410       .  A
C881        C882   1.414       .  A
C882        C890   1.413       .  A
C883        C892   1.403       .  A
C883        C884   1.404       .  A
C884        C885   1.399       .  A
C884        H895   1.084       .  S
C885        C886   1.404       .  A
C885        H896   1.084       .  S
C886        C887   1.406       .  A
C887        C888   1.410       .  A
C887        H897   1.084       .  S
C888        C889   1.414       .  A
C889        H898   1.084       .  S
C890        C891   1.407       .  A
C890        H899   1.084   1_556  S
C891        C892   1.407       .  A
C892        H900   1.085       .  S
C901        C902   1.396       .  A
C901        C906   1.402       .  A
C901        H917   1.084       .  S
C902        C903   1.403       .  A
C902        H918   1.084       .  S
C903        C913   1.393       .  A
C903        C904   1.408       .  A
C904        C910   1.415       .  A
C904        C905   1.407       .  A
C905        C907   1.408       .  A
C905        C906   1.414       .  A
C906        C914   1.400       .  A
C907        C916   1.395       .  A
C907        C908   1.404       .  A
C908        C909   1.397       .  A
C908        H919   1.084       .  S
C909        C910   1.402       .  A
C909        H920   1.084       .  S
C910        C911   1.403       .  A
C911        C912   1.402       .  A
C911        H921   1.084       .  S
C912        C913   1.406       .  A
C913        H922   1.085       .  S
C914        C915   1.403       .  A
C914        H923   1.084       .  S
C915        C916   1.410       .  A
C916        H924   1.084       .  S
C925        C926   1.400       .  A
C925        C930   1.405       .  A
C925        H941   1.084       .  S
C926        C927   1.404       .  A
C926        H942   1.084       .  S
C927        C937   1.408   1_554  A
C927        C928   1.415       .  A
C928        C934   1.407   1_554  A
C928        C929   1.408       .  A
C929        C931   1.414       .  A
C929        C930   1.409       .  A
C930        C938   1.400       .  A
C931        C940   1.397       .  A
C931        C932   1.400       .  A
C932        C933   1.393       .  A
C932        H943   1.084       .  S
C933        C934   1.402   1_554  A
C933        H944   1.084       .  S
C934        C935   1.390       .  A
C935        C936   1.407       .  A
C935        H945   1.084       .  S
C936        C937   1.407       .  A
C937        H946   1.084       .  S
C938        C939   1.409       .  A
C938        H947   1.085       .  S
C939        C940   1.400       .  A
C940        H948   1.085       .  S
C949        C950   1.397       .  A
C949        C954   1.402       .  A
C949        H965   1.084       .  S
C950        C951   1.403       .  A
C950        H966   1.084       .  S
C951        C961   1.398       .  A
C951        C952   1.409       .  A
C952        C958   1.415       .  A
C952        C953   1.416       .  A
C953        C955   1.410       .  A
C953        C954   1.414       .  A
C954        C962   1.403       .  A
C955        C964   1.409       .  A
C955        C956   1.406       .  A
C956        C957   1.405       .  A
C956        H967   1.084       .  S
C957        C958   1.406       .  A
C957        H968   1.083       .  S
C958        C959   1.416       .  A
C959        C960   1.408       .  A
C959        H969   1.084       .  S
C960        C961   1.406       .  A
C961        H970   1.085       .  S
C962        C963   1.403       .  A
C962        H971   1.085       .  S
C963        C964   1.411       .  A
C964        H972   1.084       .  S
C973        C974   1.402       .  A
C973        C978   1.405       .  A
C973        H989   1.084       .  S
C974        C975   1.404       .  A
C974        H990   1.083       .  S
C975        C985   1.411       .  A
C975        C976   1.414       .  A
C976        C982   1.410       .  A
C976        C977   1.417       .  A
C977        C979   1.414       .  A
C977        C978   1.410       .  A
C978        C986   1.406       .  A
C979        C988   1.409       .  A
C979        C980   1.404       .  A
C980        C981   1.400       .  A
C980        H991   1.083       .  S
C981        C982   1.405       .  A
C981        H992   1.084       .  S
C982        C983   1.404       .  A
C983        C984   1.410       .  A
C983        H993   1.084       .  S
C984        C985   1.409       .  A
C985        H994   1.084       .  S
C986        C987   1.407       .  A
C986        H995   1.085       .  S
C987        C988   1.406       .  A
C988        H996   1.084       .  S
C997        C998   1.401       .  A
C997       C1002   1.406       .  A
C997       H1013   1.084       .  S
C998        C999   1.404       .  A
C998       H1014   1.084       .  S
C999       C1009   1.410       .  A
C999       C1000   1.415       .  A
C1000      C1006   1.408       .  A
C1000      C1001   1.416       .  A
C1001      C1003   1.416       .  A
C1001      C1002   1.408       .  A
C1002      C1010   1.403       .  A
C1003      C1012   1.412       .  A
C1003      C1004   1.404       .  A
C1004      C1005   1.401       .  A
C1004      H1015   1.083       .  S
C1005      C1006   1.405       .  A
C1005      H1016   1.084       .  S
C1006      C1007   1.402       .  A
C1007      C1008   1.413       .  A
C1007      H1017   1.084       .  S
C1008      C1009   1.409       .  A
C1009      H1018   1.084       .  S
C1010      C1011   1.409       .  A
C1010      H1019   1.083       .  S
C1011      C1012   1.405       .  A
C1012      H1020   1.084       .  S
C1021      C1022   1.404       .  A
C1021      C1026   1.406       .  A
C1021      H1037   1.084       .  S
C1022      C1023   1.405       .  A
C1022      H1038   1.084       .  S
C1023      C1033   1.414       .  A
C1023      C1024   1.415       .  A
C1024      C1030   1.410       .  A
C1024      C1025   1.418       .  A
C1025      C1027   1.415       .  A
C1025      C1026   1.410       .  A
C1026      C1034   1.410       .  A
C1027      C1036   1.409       .  A
C1027      C1028   1.403       .  A
C1028      C1029   1.400       .  A
C1028      H1039   1.083       .  S
C1029      C1030   1.405       .  A
C1029      H1040   1.083       .  S
C1030      C1031   1.404       .  A
C1031      C1032   1.409       .  A
C1031      H1041   1.085       .  S
C1032      C1033   1.408       .  A
C1033      H1042   1.084       .  S
C1034      C1035   1.411       .  A
C1034      H1043   1.085       .  S
C1035      C1036   1.403       .  A
C1036      H1044   1.084       .  S
C1045      C1046   1.401       .  A
C1045      C1050   1.404       .  A
C1045      H1061   1.084       .  S
C1046      C1047   1.405       .  A
C1046      H1062   1.084       .  S
C1047      C1057   1.405       .  A
C1047      C1048   1.411       .  A
C1048      C1054   1.414       .  A
C1048      C1049   1.413       .  A
C1049      C1051   1.410       .  A
C1049      C1050   1.414       .  A
C1050      C1058   1.409       .  A
C1051      C1060   1.401       .  A
C1051      C1052   1.404       .  A
C1052      C1053   1.398       .  A
C1052      H1063   1.084       .  S
C1053      C1054   1.402       .  A
C1053      H1064   1.084       .  S
C1054      C1055   1.404       .  A
C1055      C1056   1.402       .  A
C1055      H1065   1.084       .  S
C1056      C1057   1.406       .  A
C1057      H1066   1.085       .  S
C1058      C1059   1.405       .  A
C1058      H1067   1.084       .  S
C1059      C1060   1.406       .  A
C1060      H1068   1.085       .  S
C1069      C1070   1.395       .  A
C1069      C1074   1.402       .  A
C1069      H1085   1.083       .  S
C1070      C1071   1.402       .  A
C1070      H1086   1.084       .  S
C1071      C1081   1.396       .  A
C1071      C1072   1.410       .  A
C1072      C1078   1.412       .  A
C1072      C1073   1.408       .  A
C1073      C1075   1.411       .  A
C1073      C1074   1.411       .  A
C1074      C1082   1.398       .  A
C1075      C1084   1.401       .  A
C1075      C1076   1.404       .  A
C1076      C1077   1.398       .  A
C1076      H1087   1.084       .  S
C1077      C1078   1.403       .  A
C1077      H1088   1.084       .  S
C1078      C1079   1.402       .  A
C1079      C1080   1.406       .  A
C1079      H1089   1.084       .  S
C1080      C1081   1.406       .  A
C1081      H1090   1.084       .  S
C1082      C1083   1.405       .  A
C1082      H1091   1.084       .  S
C1083      C1084   1.407       .  A
C1084      H1092   1.084       .  S
C1093      C1094   1.395       .  A
C1093      C1098   1.402   1_554  A
C1093      H1109   1.084   1_554  S
C1094      C1095   1.401       .  A
C1094      H1110   1.083       .  S
C1095      C1105   1.399       .  A
C1095      C1096   1.413       .  A
C1096      C1102   1.410       .  A
C1096      C1097   1.409       .  A
C1097      C1099   1.412   1_554  A
C1097      C1098   1.410   1_554  A
C1098      C1106   1.395       .  A
C1099      C1108   1.405       .  A
C1099      C1100   1.404       .  A
C1100      C1101   1.400   1_556  A
C1100      H1111   1.084       .  S
C1101      C1102   1.405       .  A
C1101      H1112   1.084       .  S
C1102      C1103   1.403       .  A
C1103      C1104   1.409       .  A
C1103      H1113   1.084       .  S
C1104      C1105   1.403       .  A
C1105      H1114   1.084       .  S
C1106      C1107   1.404       .  A
C1106      H1115   1.084       .  S
C1107      C1108   1.409       .  A
C1108      H1116   1.084       .  S
C1117      C1118   1.401       .  A
C1117      C1122   1.405       .  A
C1117      H1133   1.084       .  S
C1118      C1119   1.404       .  A
C1118      H1134   1.083       .  S
C1119      C1129   1.410       .  A
C1119      C1120   1.414       .  A
C1120      C1126   1.409       .  A
C1120      C1121   1.418       .  A
C1121      C1123   1.415       .  A
C1121      C1122   1.409       .  A
C1122      C1130   1.405       .  A
C1123      C1132   1.412       .  A
C1123      C1124   1.404       .  A
C1124      C1125   1.401       .  A
C1124      H1135   1.083       .  S
C1125      C1126   1.405       .  A
C1125      H1136   1.082       .  S
C1126      C1127   1.405       .  A
C1127      C1128   1.412       .  A
C1127      H1137   1.084       .  S
C1128      C1129   1.409       .  A
C1129      H1138   1.084       .  S
C1130      C1131   1.408       .  A
C1130      H1139   1.085       .  S
C1131      C1132   1.406       .  A
C1132      H1140   1.084       .  S
C1141      C1142   1.405       .  A
C1141      C1146   1.406       .  A
C1141      H1157   1.083       .  S
C1142      C1143   1.406       .  A
C1142      H1158   1.083       .  S
C1143      C1153   1.415       .  A
C1143      C1144   1.413       .  A
C1144      C1150   1.411       .  A
C1144      C1145   1.419       .  A
C1145      C1147   1.412       .  A
C1145      C1146   1.414       .  A
C1146      C1154   1.415       .  A
C1147      C1156   1.405       .  A
C1147      C1148   1.404       .  A
C1148      C1149   1.400       .  A
C1148      H1159   1.084       .  S
C1149      C1150   1.404       .  A
C1149      H1160   1.084       .  S
C1150      C1151   1.406       .  A
C1151      C1152   1.407       .  A
C1151      H1161   1.085       .  S
C1152      C1153   1.410       .  A
C1153      H1162   1.084       .  S
C1154      C1155   1.408       .  A
C1154      H1163   1.084       .  S
C1155      C1156   1.407       .  A
C1156      H1164   1.085       .  S
C1165      C1166   1.402       .  A
C1165      C1170   1.405       .  A
C1165      H1181   1.084       .  S
C1166      C1167   1.404       .  A
C1166      H1182   1.083       .  S
C1167      C1177   1.410       .  A
C1167      C1168   1.414       .  A
C1168      C1174   1.409       .  A
C1168      C1169   1.415       .  A
C1169      C1171   1.414       .  A
C1169      C1170   1.411       .  A
C1170      C1178   1.406       .  A
C1171      C1180   1.406       .  A
C1171      C1172   1.403       .  A
C1172      C1173   1.399       .  A
C1172      H1183   1.084       .  S
C1173      C1174   1.404       .  A
C1173      H1184   1.084       .  S
C1174      C1175   1.401       .  A
C1175      C1176   1.409       .  A
C1175      H1185   1.085       .  S
C1176      C1177   1.406       .  A
C1177      H1186   1.084       .  S
C1178      C1179   1.408       .  A
C1178      H1187   1.085       .  S
C1179      C1180   1.403       .  A
C1180      H1188   1.084       .  S
C1189      C1190   1.399       .  A
C1189      C1194   1.404       .  A
C1189      H1205   1.083       .  S
C1190      C1191   1.402       .  A
C1190      H1206   1.083       .  S
C1191      C1201   1.406       .  A
C1191      C1192   1.416       .  A
C1192      C1198   1.408       .  A
C1192      C1193   1.411       .  A
C1193      C1195   1.414       .  A
C1193      C1194   1.409       .  A
C1194      C1202   1.401       .  A
C1195      C1204   1.406       .  A
C1195      C1196   1.403       .  A
C1196      C1197   1.399       .  A
C1196      H1207   1.084       .  S
C1197      C1198   1.404       .  A
C1197      H1208   1.084       .  S
C1198      C1199   1.398       .  A
C1199      C1200   1.410       .  A
C1199      H1209   1.085       .  S
C1200      C1201   1.402       .  A
C1201      H1210   1.084       .  S
C1202      C1203   1.407       .  A
C1202      H1211   1.085       .  S
C1203      C1204   1.405       .  A
C1204      H1212   1.084       .  S
C1213      C1214   1.404       .  A
C1213      C1218   1.406       .  A
C1213      H1229   1.083       .  S
C1214      C1215   1.406       .  A
C1214      H1230   1.084       .  S
C1215      C1225   1.408       .  A
C1215      C1216   1.410       .  A
C1216      C1222   1.414       .  A
C1216      C1217   1.418       .  A
C1217      C1219   1.408       .  A
C1217      C1218   1.414       .  A
C1218      C1226   1.415       .  A
C1219      C1228   1.402       .  A
C1219      C1220   1.404       .  A
C1220      C1221   1.399       .  A
C1220      H1231   1.082       .  S
C1221      C1222   1.403       .  A
C1221      H1232   1.084       .  S
C1222      C1223   1.408       .  A
C1223      C1224   1.404       .  A
C1223      H1233   1.085       .  S
C1224      C1225   1.408       .  A
C1225      H1234   1.085       .  S
C1226      C1227   1.412       .  A
C1226      H1235   1.084       .  S
C1227      C1228   1.411       .  A
C1228      H1236   1.084       .  S
C1237      C1238   1.394       .  A
C1237      C1242   1.402       .  A
C1237      H1253   1.084       .  S
C1238      C1239   1.401       .  A
C1238      H1254   1.084       .  S
C1239      C1249   1.398       .  A
C1239      C1240   1.413       .  A
C1240      C1246   1.410       .  A
C1240      C1241   1.408       .  A
C1241      C1243   1.413       .  A
C1241      C1242   1.410       .  A
C1242      C1250   1.394   1_556  A
C1243      C1252   1.404   1_556  A
C1243      C1244   1.403       .  A
C1244      C1245   1.400       .  A
C1244      H1255   1.084       .  S
C1245      C1246   1.405       .  A
C1245      H1256   1.084       .  S
C1246      C1247   1.402       .  A
C1247      C1248   1.411       .  A
C1247      H1257   1.084       .  S
C1248      C1249   1.403       .  A
C1249      H1258   1.084       .  S
C1250      C1251   1.404       .  A
C1250      H1259   1.085       .  S
C1251      C1252   1.405       .  A
C1252      H1260   1.084       .  S
C1261      C1262   1.398       .  A
C1261      C1266   1.402       .  A
C1261      H1277   1.082       .  S
C1262      C1263   1.403       .  A
C1262      H1278   1.084       .  S
C1263      C1273   1.400       .  A
C1263      C1264   1.410       .  A
C1264      C1270   1.412       .  A
C1264      C1265   1.410       .  A
C1265      C1267   1.411       .  A
C1265      C1266   1.413       .  A
C1266      C1274   1.403       .  A
C1267      C1276   1.400       .  A
C1267      C1268   1.403       .  A
C1268      C1269   1.398       .  A
C1268      H1279   1.084       .  S
C1269      C1270   1.403       .  A
C1269      H1280   1.084       .  S
C1270      C1271   1.401       .  A
C1271      C1272   1.407       .  A
C1271      H1281   1.084       .  S
C1272      C1273   1.408       .  A
C1273      H1282   1.084       .  S
C1274      C1275   1.403       .  A
C1274      H1283   1.084       .  S
C1275      C1276   1.405       .  A
C1276      H1284   1.085       .  S
C1285      C1286   1.401       .  A
C1285      C1290   1.405       .  A
C1285      H1301   1.083       .  S
C1286      C1287   1.403       .  A
C1286      H1302   1.083       .  S
C1287      C1297   1.413       .  A
C1287      C1288   1.416       .  A
C1288      C1294   1.407       .  A
C1288      C1289   1.418       .  A
C1289      C1291   1.416       .  A
C1289      C1290   1.407       .  A
C1290      C1298   1.403       .  A
C1291      C1300   1.416       .  A
C1291      C1292   1.405       .  A
C1292      C1293   1.403       .  A
C1292      H1303   1.083       .  S
C1293      C1294   1.406       .  A
C1293      H1304   1.084       .  S
C1294      C1295   1.405       .  A
C1295      C1296   1.415       .  A
C1295      H1305   1.085       .  S
C1296      C1297   1.407       .  A
C1297      H1306   1.084       .  S
C1298      C1299   1.411       .  A
C1298      H1307   1.085       .  S
C1299      C1300   1.409       .  A
C1300      H1308   1.084       .  S
C1309      C1310   1.399       .  A
C1309      C1314   1.403       .  A
C1309      H1325   1.084       .  S
C1310      C1311   1.404       .  A
C1310      H1326   1.084       .  S
C1311      C1321   1.403       .  A
C1311      C1312   1.410       .  A
C1312      C1318   1.415       .  A
C1312      C1313   1.415       .  A
C1313      C1315   1.409       .  A
C1313      C1314   1.414       .  A
C1314      C1322   1.406       .  A
C1315      C1324   1.405       .  A
C1315      C1316   1.406       .  A
C1316      C1317   1.402   1_554  A
C1316      H1327   1.084       .  S
C1317      C1318   1.405   1_556  A
C1317      H1328   1.083       .  S
C1318      C1319   1.412   1_554  A
C1319      C1320   1.406       .  A
C1319      H1329   1.084       .  S
C1320      C1321   1.407   1_556  A
C1321      H1330   1.085       .  S
C1322      C1323   1.406       .  A
C1322      H1331   1.084       .  S
C1323      C1324   1.414       .  A
C1324      H1332   1.084       .  S
C1333      C1334   1.403       .  A
C1333      C1338   1.405       .  A
C1333      H1349   1.084       .  S
C1334      C1335   1.405       .  A
C1334      H1350   1.084       .  S
C1335      C1345   1.408       .  A
C1335      C1336   1.411       .  A
C1336      C1342   1.414       .  A
C1336      C1337   1.416       .  A
C1337      C1339   1.410       .  A
C1337      C1338   1.414       .  A
C1338      C1346   1.413       .  A
C1339      C1348   1.402       .  A
C1339      C1340   1.404       .  A
C1340      C1341   1.398       .  A
C1340      H1351   1.084       .  S
C1341      C1342   1.402       .  A
C1341      H1352   1.084       .  S
C1342      C1343   1.405       .  A
C1343      C1344   1.402       .  A
C1343      H1353   1.084       .  S
C1344      C1345   1.408       .  A
C1345      H1354   1.085       .  S
C1346      C1347   1.408       .  A
C1346      H1355   1.084       .  S
C1347      C1348   1.406       .  A
C1348      H1356   1.085       .  S
C1357      C1358   1.396   1_545  A
C1357      C1362   1.401       .  A
C1357      H1373   1.084       .  S
C1358      C1359   1.403       .  A
C1358      H1374   1.084       .  S
C1359      C1369   1.399       .  A
C1359      C1360   1.408       .  A
C1360      C1366   1.414       .  A
C1360      C1361   1.415   1_565  A
C1361      C1363   1.409       .  A
C1361      C1362   1.414       .  A
C1362      C1370   1.403       .  A
C1363      C1372   1.407       .  A
C1363      C1364   1.407       .  A
C1364      C1365   1.404   1_545  A
C1364      H1375   1.084       .  S
C1365      C1366   1.405       .  A
C1365      H1376   1.084       .  S
C1366      C1367   1.413       .  A
C1367      C1368   1.409       .  A
C1367      H1377   1.084       .  S
C1368      C1369   1.409       .  A
C1369      H1378   1.084       .  S
C1370      C1371   1.403       .  A
C1370      H1379   1.084       .  S
C1371      C1372   1.414       .  A
C1372      H1380   1.084       .  S
C1381      C1382   1.399       .  A
C1381      C1386   1.403       .  A
C1381      H1397   1.084       .  S
C1382      C1383   1.404       .  A
C1382      H1398   1.084       .  S
C1383      C1393   1.401       .  A
C1383      C1384   1.408       .  A
C1384      C1390   1.414       .  A
C1384      C1385   1.417       .  A
C1385      C1387   1.409       .  A
C1385      C1386   1.413       .  A
C1386      C1394   1.407       .  A
C1387      C1396   1.408       .  A
C1387      C1388   1.406       .  A
C1388      C1389   1.403       .  A
C1388      H1399   1.083       .  S
C1389      C1390   1.405       .  A
C1389      H1400   1.083       .  S
C1390      C1391   1.413       .  A
C1391      C1392   1.411       .  A
C1391      H1401   1.084       .  S
C1392      C1393   1.413       .  A
C1393      H1402   1.084       .  S
C1394      C1395   1.408       .  A
C1394      H1403   1.084       .  S
C1395      C1396   1.414       .  A
C1396      H1404   1.084       .  S
C1405      C1406   1.398       .  A
C1405      C1410   1.404       .  A
C1405      H1421   1.084       .  S
C1406      C1407   1.404       .  A
C1406      H1422   1.084       .  S
C1407      C1417   1.400       .  A
C1407      C1408   1.412       .  A
C1408      C1414   1.410       .  A
C1408      C1409   1.403       .  A
C1409      C1411   1.413   1_556  A
C1409      C1410   1.410       .  A
C1410      C1418   1.398   1_556  A
C1411      C1420   1.392       .  A
C1411      C1412   1.400   1_554  A
C1412      C1413   1.392       .  A
C1412      H1423   1.084   1_556  S
C1413      C1414   1.401       .  A
C1413      H1424   1.084       .  S
C1414      C1415   1.390       .  A
C1415      C1416   1.402       .  A
C1415      H1425   1.084       .  S
C1416      C1417   1.407       .  A
C1417      H1426   1.085       .  S
C1418      C1419   1.407       .  A
C1418      H1427   1.084       .  S
C1419      C1420   1.398       .  A
C1420      H1428   1.085       .  S
C1429      C1430   1.397       .  A
C1429      C1434   1.403       .  A
C1429      H1445   1.084       .  S
C1430      C1431   1.403       .  A
C1430      H1446   1.084       .  S
C1431      C1441   1.401       .  A
C1431      C1432   1.412       .  A
C1432      C1438   1.410       .  A
C1432      C1433   1.408       .  A
C1433      C1435   1.412       .  A
C1433      C1434   1.410       .  A
C1434      C1442   1.397       .  A
C1435      C1444   1.400       .  A
C1435      C1436   1.402       .  A
C1436      C1437   1.397       .  A
C1436      H1447   1.083       .  S
C1437      C1438   1.403       .  A
C1437      H1448   1.084       .  S
C1438      C1439   1.398       .  A
C1439      C1440   1.407       .  A
C1439      H1449   1.084       .  S
C1440      C1441   1.406       .  A
C1441      H1450   1.084       .  S
C1442      C1443   1.406       .  A
C1442      H1451   1.084       .  S
C1443      C1444   1.405       .  A
C1444      H1452   1.084       .  S
C1453      C1454   1.400       .  A
C1453      C1458   1.403       .  A
C1453      H1469   1.083       .  S
C1454      C1455   1.404       .  A
C1454      H1470   1.084       .  S
C1455      C1465   1.403       .  A
C1455      C1456   1.411       .  A
C1456      C1462   1.414       .  A
C1456      C1457   1.414       .  A
C1457      C1459   1.410       .  A
C1457      C1458   1.414       .  A
C1458      C1466   1.408       .  A
C1459      C1468   1.403       .  A
C1459      C1460   1.405       .  A
C1460      C1461   1.400       .  A
C1460      H1471   1.084       .  S
C1461      C1462   1.404       .  A
C1461      H1472   1.084       .  S
C1462      C1463   1.407       .  A
C1463      C1464   1.405       .  A
C1463      H1473   1.084       .  S
C1464      C1465   1.404       .  A
C1465      H1474   1.085       .  S
C1466      C1467   1.404       .  A
C1466      H1475   1.085       .  S
C1467      C1468   1.407       .  A
C1468      H1476   1.085       .  S
C1477      C1478   1.398   1_545  A
C1477      C1482   1.402       .  A
C1477      H1493   1.084       .  S
C1478      C1479   1.404       .  A
C1478      H1494   1.084       .  S
C1479      C1489   1.400       .  A
C1479      C1480   1.408       .  A
C1480      C1486   1.414       .  A
C1480      C1481   1.417   1_565  A
C1481      C1483   1.409       .  A
C1481      C1482   1.414       .  A
C1482      C1490   1.406       .  A
C1483      C1492   1.410       .  A
C1483      C1484   1.407       .  A
C1484      C1485   1.405   1_545  A
C1484      H1495   1.083       .  S
C1485      C1486   1.405       .  A
C1485      H1496   1.083       .  S
C1486      C1487   1.416       .  A
C1487      C1488   1.411       .  A
C1487      H1497   1.084       .  S
C1488      C1489   1.412       .  A
C1489      H1498   1.084       .  S
C1490      C1491   1.406       .  A
C1490      H1499   1.084       .  S
C1491      C1492   1.413       .  A
C1492      H1500   1.084       .  S
C1501      C1502   1.402       .  A
C1501      C1506   1.405       .  A
C1501      H1517   1.083       .  S
C1502      C1503   1.406       .  A
C1502      H1518   1.084       .  S
C1503      C1513   1.406       .  A
C1503      C1504   1.409       .  A
C1504      C1510   1.414       .  A
C1504      C1505   1.418       .  A
C1505      C1507   1.408       .  A
C1505      C1506   1.414       .  A
C1506      C1514   1.413       .  A
C1507      C1516   1.403       .  A
C1507      C1508   1.404       .  A
C1508      C1509   1.400       .  A
C1508      H1519   1.082       .  S
C1509      C1510   1.404       .  A
C1509      H1520   1.084       .  S
C1510      C1511   1.410       .  A
C1511      C1512   1.409       .  A
C1511      H1521   1.084       .  S
C1512      C1513   1.413       .  A
C1513      H1522   1.084       .  S
C1514      C1515   1.410       .  A
C1514      H1523   1.084   1_554  S
C1515      C1516   1.414       .  A
C1516      H1524   1.084       .  S
C1525      C1526   1.398       .  A
C1525      C1530   1.403       .  A
C1525      H1541   1.084       .  S
C1526      C1527   1.404       .  A
C1526      H1542   1.084       .  S
C1527      C1537   1.399       .  A
C1527      C1528   1.409       .  A
C1528      C1534   1.413       .  A
C1528      C1529   1.412       .  A
C1529      C1531   1.410       .  A
C1529      C1530   1.413       .  A
C1530      C1538   1.403       .  A
C1531      C1540   1.403       .  A
C1531      C1532   1.404       .  A
C1532      C1533   1.400       .  A
C1532      H1543   1.084       .  S
C1533      C1534   1.403       .  A
C1533      H1544   1.083       .  S
C1534      C1535   1.406       .  A
C1535      C1536   1.407       .  A
C1535      H1545   1.084       .  S
C1536      C1537   1.412       .  A
C1537      H1546   1.084       .  S
C1538      C1539   1.406       .  A
C1538      H1547   1.084       .  S
C1539      C1540   1.408       .  A
C1540      H1548   1.084       .  S
C1549      C1550   1.399       .  A
C1549      C1554   1.403       .  A
C1549      H1565   1.083       .  S
C1550      C1551   1.404       .  A
C1550      H1566   1.084       .  S
C1551      C1561   1.399       .  A
C1551      C1552   1.409       .  A
C1552      C1558   1.416       .  A
C1552      C1553   1.413       .  A
C1553      C1555   1.409       .  A
C1553      C1554   1.415       .  A
C1554      C1562   1.408       .  A
C1555      C1564   1.402       .  A
C1555      C1556   1.405       .  A
C1556      C1557   1.400       .  A
C1556      H1567   1.084       .  S
C1557      C1558   1.403       .  A
C1557      H1568   1.084       .  S
C1558      C1559   1.408       .  A
C1559      C1560   1.403       .  A
C1559      H1569   1.084       .  S
C1560      C1561   1.406       .  A
C1561      H1570   1.085       .  S
C1562      C1563   1.403       .  A
C1562      H1571   1.085       .  S
C1563      C1564   1.408       .  A
C1564      H1572   1.085       .  S
C1573      C1574   1.399       .  A
C1573      C1578   1.404       .  A
C1573      H1589   1.084       .  S
C1574      C1575   1.403       .  A
C1574      H1590   1.083       .  S
C1575      C1585   1.407       .  A
C1575      C1576   1.414       .  A
C1576      C1582   1.411       .  A
C1576      C1577   1.416       .  A
C1577      C1579   1.414       .  A
C1577      C1578   1.410       .  A
C1578      C1586   1.402       .  A
C1579      C1588   1.410       .  A
C1579      C1580   1.404       .  A
C1580      C1581   1.402       .  A
C1580      H1591   1.084       .  S
C1581      C1582   1.405       .  A
C1581      H1592   1.083       .  S
C1582      C1583   1.408       .  A
C1583      C1584   1.409       .  A
C1583      H1593   1.085       .  S
C1584      C1585   1.405       .  A
C1585      H1594   1.084       .  S
C1586      C1587   1.406       .  A
C1586      H1595   1.085       .  S
C1587      C1588   1.406       .  A
C1588      H1596   1.085       .  S
C1597      C1598   1.402       .  A
C1597      C1602   1.406       .  A
C1597      H1613   1.083       .  S
C1598      C1599   1.403   1_655  A
C1598      H1614   1.083   1_655  S
C1599      C1609   1.413       .  A
C1599      C1600   1.417       .  A
C1600      C1606   1.407       .  A
C1600      C1601   1.417   1_455  A
C1601      C1603   1.416       .  A
C1601      C1602   1.408       .  A
C1602      C1610   1.405       .  A
C1603      C1612   1.412       .  A
C1603      C1604   1.404   1_655  A
C1604      C1605   1.401       .  A
C1604      H1615   1.084   1_455  S
C1605      C1606   1.405       .  A
C1605      H1616   1.084       .  S
C1606      C1607   1.401       .  A
C1607      C1608   1.413       .  A
C1607      H1617   1.085       .  S
C1608      C1609   1.404       .  A
C1609      H1618   1.084       .  S
C1610      C1611   1.411       .  A
C1610      H1619   1.085       .  S
C1611      C1612   1.405       .  A
C1612      H1620   1.084       .  S
C1621      C1622   1.396       .  A
C1621      C1626   1.401       .  A
C1621      H1637   1.084       .  S
C1622      C1623   1.404       .  A
C1622      H1638   1.084       .  S
C1623      C1633   1.396       .  A
C1623      C1624   1.407       .  A
C1624      C1630   1.414       .  A
C1624      C1625   1.409       .  A
C1625      C1627   1.408       .  A
C1625      C1626   1.415       .  A
C1626      C1634   1.402   1_556  A
C1627      C1636   1.397   1_556  A
C1627      C1628   1.404       .  A
C1628      C1629   1.399       .  A
C1628      H1639   1.084       .  S
C1629      C1630   1.403       .  A
C1629      H1640   1.084       .  S
C1630      C1631   1.405       .  A
C1631      C1632   1.407       .  A
C1631      H1641   1.084       .  S
C1632      C1633   1.410       .  A
C1633      H1642   1.084       .  S
C1634      C1635   1.401       .  A
C1634      H1643   1.084       .  S
C1635      C1636   1.409       .  A
C1636      H1644   1.085       .  S
C1645      C1646   1.400       .  A
C1645      C1650   1.405       .  A
C1645      H1661   1.084       .  S
C1646      C1647   1.404       .  A
C1646      H1662   1.084       .  S
C1647      C1657   1.408       .  A
C1647      C1648   1.415       .  A
C1648      C1654   1.407       .  A
C1648      C1649   1.410       .  A
C1649      C1651   1.415       .  A
C1649      C1650   1.408       .  A
C1650      C1658   1.399       .  A
C1651      C1660   1.401       .  A
C1651      C1652   1.401       .  A
C1652      C1653   1.396       .  A
C1652      H1663   1.084       .  S
C1653      C1654   1.403       .  A
C1653      H1664   1.084       .  S
C1654      C1655   1.394       .  A
C1655      C1656   1.408       .  A
C1655      H1665   1.084       .  S
C1656      C1657   1.406       .  A
C1657      H1666   1.084       .  S
C1658      C1659   1.411       .  A
C1658      H1667   1.084       .  S
C1659      C1660   1.402       .  A
C1660      H1668   1.084       .  S
C1669      C1670   1.398       .  A
C1669      C1674   1.403       .  A
C1669      H1685   1.084       .  S
C1670      C1671   1.403       .  A
C1670      H1686   1.083       .  S
C1671      C1681   1.404       .  A
C1671      C1672   1.412       .  A
C1672      C1678   1.411       .  A
C1672      C1673   1.416       .  A
C1673      C1675   1.412       .  A
C1673      C1674   1.411       .  A
C1674      C1682   1.403       .  A
C1675      C1684   1.411       .  A
C1675      C1676   1.406       .  A
C1676      C1677   1.403       .  A
C1676      H1687   1.083   1_554  S
C1677      C1678   1.406       .  A
C1677      H1688   1.084       .  S
C1678      C1679   1.409       .  A
C1679      C1680   1.412       .  A
C1679      H1689   1.084       .  S
C1680      C1681   1.408       .  A
C1681      H1690   1.084       .  S
C1682      C1683   1.408       .  A
C1682      H1691   1.084       .  S
C1683      C1684   1.412       .  A
C1684      H1692   1.084   1_554  S
C1693      C1694   1.398       .  A
C1693      C1698   1.402       .  A
C1693      H1709   1.084       .  S
C1694      C1695   1.404       .  A
C1694      H1710   1.084       .  S
C1695      C1705   1.398       .  A
C1695      C1696   1.408       .  A
C1696      C1702   1.416       .  A
C1696      C1697   1.415       .  A
C1697      C1699   1.409       .  A
C1697      C1698   1.415       .  A
C1698      C1706   1.407       .  A
C1699      C1708   1.407       .  A
C1699      C1700   1.406       .  A
C1700      C1701   1.403       .  A
C1700      H1711   1.084       .  S
C1701      C1702   1.404       .  A
C1701      H1712   1.083       .  S
C1702      C1703   1.415       .  A
C1703      C1704   1.407       .  A
C1703      H1713   1.084       .  S
C1704      C1705   1.408       .  A
C1705      H1714   1.086       .  S
C1706      C1707   1.404       .  A
C1706      H1715   1.084       .  S
C1707      C1708   1.411       .  A
C1708      H1716   1.085       .  S
C1717      C1718   1.401       .  A
C1717      C1722   1.404       .  A
C1717      H1733   1.084       .  S
C1718      C1719   1.405       .  A
C1718      H1734   1.084       .  S
C1719      C1729   1.403       .  A
C1719      C1720   1.409       .  A
C1720      C1726   1.415       .  A
C1720      C1721   1.416       .  A
C1721      C1723   1.410       .  A
C1721      C1722   1.414       .  A
C1722      C1730   1.408       .  A
C1723      C1732   1.405       .  A
C1723      C1724   1.405       .  A
C1724      C1725   1.401       .  A
C1724      H1735   1.083       .  S
C1725      C1726   1.403       .  A
C1725      H1736   1.084       .  S
C1726      C1727   1.409       .  A
C1727      C1728   1.404       .  A
C1727      H1737   1.084       .  S
C1728      C1729   1.410       .  A
C1729      H1738   1.085       .  S
C1730      C1731   1.406       .  A
C1730      H1739   1.084       .  S
C1731      C1732   1.407       .  A
C1732      H1740   1.085       .  S
C1741      C1742   1.401       .  A
C1741      C1746   1.406       .  A
C1741      H1757   1.084       .  S
C1742      C1743   1.403   1_655  A
C1742      H1758   1.084       .  S
C1743      C1753   1.412       .  A
C1743      C1744   1.417       .  A
C1744      C1750   1.408       .  A
C1744      C1745   1.416   1_455  A
C1745      C1747   1.417       .  A
C1745      C1746   1.407       .  A
C1746      C1754   1.402       .  A
C1747      C1756   1.414       .  A
C1747      C1748   1.404   1_655  A
C1748      C1749   1.401       .  A
C1748      H1759   1.083   1_455  S
C1749      C1750   1.405       .  A
C1749      H1760   1.084       .  S
C1750      C1751   1.401       .  A
C1751      C1752   1.409       .  A
C1751      H1761   1.085       .  S
C1752      C1753   1.404       .  A
C1753      H1762   1.084       .  S
C1754      C1755   1.413       .  A
C1754      H1763   1.085       .  S
C1755      C1756   1.406       .  A
C1756      H1764   1.084       .  S
