geometry optimzed in LAMMPS
_audit_creation_date              2020-11-30 
_audit_creation_method            'lammps2cif' 
_symmetry_space_group_name_H-M    'P1' 
_symmetry_Int_Tables_number       1 
_symmetry_cell_setting            triclinic 
loop_ 
_symmetry_equiv_pos_as_xyz 
  x,y,z 
_cell_length_a                    48.00807233 
_cell_length_b                    48.08485506747663 
_cell_length_c                    38.17832060828587 
_cell_angle_alpha                 90.21955346585406 
_cell_angle_beta                  89.62596337650442 
_cell_angle_gamma                 120.4351461099218 
loop_ 
_atom_site_label 
_atom_site_type_symbol 
_atom_site_fract_x 
_atom_site_fract_y 
_atom_site_fract_z 
_atom_site_charge 
Fe1        Fe  0.56396268  0.66087994  0.40238318     1.65800
Fe2        Fe  0.50794726  0.66935114  0.35648326     1.73200
Fe3        Fe  0.50138890  0.65984365  0.44595668     1.54400
O4          O  0.50588191  0.62121734  0.46202694    -0.82000
O5          O  0.49605637  0.70183159  0.37678669    -0.80300
O6          O  0.53982875  0.61664829  0.42504293    -0.84500
O7          O  0.57987886  0.68317957  0.45031318    -0.79300
O8          O  0.45723085  0.62686338  0.42463110    -0.81100
O9          O  0.55344364  0.70876171  0.34463778    -0.83900
C10         C  0.57057669  0.69537323  0.47370494     0.96900
C11         C  0.51888239  0.60595306  0.44936301     1.04300
O12         O  0.52426464  0.66334659  0.40152057    -1.12800
O13         O  0.51712431  0.63816105  0.32725070    -0.75300
O14         O  0.55747016  0.63821660  0.35481469    -0.78800
O15         O  0.54263623  0.69208552  0.47347081    -0.79500
C16         C  0.53877893  0.63055047  0.32891490     0.95800
O17         O  0.58879645  0.70512545  0.37996809    -0.77400
O18         O  0.46097951  0.63109571  0.36627705    -0.82600
C19         C  0.49105030  0.71017124  0.40660057     0.98400
C20         C  0.44484981  0.61834938  0.39432194     1.04300
O21         O  0.49339578  0.69758433  0.43484094    -0.78300
C22         C  0.58137541  0.72027168  0.35834873     1.02600
Fe23       Fe  0.66163155  0.57733733  0.06522557     1.65800
Fe24       Fe  0.66604005  0.51883326  0.11127888     1.73200
Fe25       Fe  0.65523402  0.51172701  0.02210666     1.54400
O26         O  0.61465228  0.51427825  0.01023866    -0.82000
O27         O  0.69540615  0.50340771  0.08966743    -0.80300
O28         O  0.61829124  0.55621150  0.04033117    -0.84500
O29         O  0.68731730  0.59346154  0.01919347    -0.79300
O30         O  0.62447669  0.46758389  0.04551211    -0.81100
O31         O  0.70732058  0.56236659  0.12209182    -0.83900
C32         C  0.69449057  0.58199513  0.99315349     0.96900
C33         C  0.60314171  0.53141572  0.02122988     1.04300
O34         O  0.66103304  0.53594586  0.06620233    -1.12800
O35         O  0.63772367  0.53169804  0.14108076    -0.75300
O36         O  0.63622731  0.57026145  0.11114106    -0.78800
O37         O  0.68505763  0.55211443  0.99093248    -0.79500
C38         C  0.62928386  0.55265688  0.13796656     0.95800
O39         O  0.70475308  0.60023020  0.09063462    -0.77400
O40         O  0.62569954  0.47320079  0.10357288    -0.82600
C41         C  0.70463622  0.49993820  0.05959478     0.98400
C42         C  0.61474880  0.45605603  0.07601948     1.04300
O43         O  0.69426224  0.50528274  0.03127787    -0.78300
C44         C  0.71922441  0.59128318  0.11141569     1.02600
Fe45       Fe  0.74810476  0.75744773  0.73453920     1.65800
Fe46       Fe  0.80680286  0.82295018  0.77816687     1.73200
Fe47       Fe  0.81024226  0.81907766  0.68876556     1.54400
O48         O  0.81118583  0.77766589  0.67687307    -0.82000
O49         O  0.81939713  0.86713515  0.75622404    -0.80300
O50         O  0.77042418  0.73756456  0.70728999    -0.84500
O51         O  0.72876180  0.76460678  0.68983129    -0.79300
O52         O  0.85583614  0.83784841  0.70951820    -0.81100
O53         O  0.76275491  0.81801189  0.79213083    -0.83900
C54         C  0.73921821  0.78227473  0.66296398     0.96900
C55         C  0.79513381  0.74863258  0.68751435     1.04300
O56         O  0.78826873  0.79984208  0.73381511    -1.12800
O57         O  0.79710435  0.78279193  0.80802373    -0.75300
O58         O  0.75859048  0.74084518  0.77959283    -0.78800
O59         O  0.76866224  0.80379908  0.65941281    -0.79500
C60         C  0.77716246  0.75279240  0.80559331     0.95800
O61         O  0.72441507  0.77584864  0.76201685    -0.77400
O62         O  0.85269326  0.83024991  0.76725139    -0.82600
C63         C  0.81943868  0.87890683  0.72646976     0.98400
C64         C  0.86884512  0.83941204  0.73881151     1.04300
O65         O  0.81236773  0.86260338  0.69823797    -0.78300
C66         C  0.73351873  0.79943325  0.78293889     1.02600
Fe67       Fe  0.32159899  0.42632331  0.92720159     1.65800
Fe68       Fe  0.32056772  0.48700218  0.88219676     1.73200
Fe69       Fe  0.32210635  0.48818875  0.97211290     1.54400
O70         O  0.29086649  0.44604978  0.99909810    -0.82000
O71         O  0.35789677  0.53278487  0.89574749    -0.80300
O72         O  0.29240086  0.40690823  0.97039308    -0.84500
O73         O  0.36211175  0.44609503  0.95710870    -0.79300
O74         O  0.28269388  0.49282902  0.95896355    -0.81100
O75         O  0.35424640  0.47872102  0.85645403    -0.83900
C76         C  0.37492456  0.46937133  0.97866183     0.96900
C77         C  0.28266200  0.41663123  0.99581448     1.04300
O78         O  0.32147605  0.46726156  0.92718619    -1.12800
O79         O  0.28230775  0.44348284  0.86447201    -0.75300
O80         O  0.28114347  0.40476416  0.89755004    -0.78800
O81         O  0.36223094  0.48603293  0.98786162    -0.79500
C82         C  0.26924044  0.41411327  0.87408049     0.95800
O83         O  0.35063996  0.43655113  0.88363932    -0.77400
O84         O  0.28685048  0.49815384  0.90083636    -0.82600
C85         C  0.36552787  0.54794426  0.92474422     0.98400
C86         C  0.27388249  0.49861773  0.92980227     1.04300
O87         O  0.35338638  0.53411201  0.95370313    -0.78300
C88         C  0.36149740  0.45680789  0.85890373     1.02600
Fe89       Fe  0.41855792  0.33817803  0.59609062     1.65800
Fe90       Fe  0.47884345  0.33639664  0.64094222     1.73200
Fe91       Fe  0.48000784  0.33836779  0.55092029     1.54400
O92         O  0.43748111  0.30465354  0.52554014    -0.82000
O93         O  0.52436577  0.37424081  0.62731757    -0.80300
O94         O  0.40026092  0.31181779  0.55093510    -0.84500
O95         O  0.43932608  0.38010081  0.56858310    -0.79300
O96         O  0.48777772  0.30111031  0.56416797    -0.81100
O97         O  0.47007026  0.36927941  0.66776517    -0.83900
C98         C  0.46047252  0.39079574  0.54441323     0.96900
C99         C  0.40871316  0.29926484  0.52715871     1.04300
O100        O  0.45931701  0.33770696  0.59601055    -1.12800
O101        O  0.43504429  0.29758020  0.65754397    -0.75300
O102        O  0.39659264  0.29626493  0.62336098    -0.78800
O103        O  0.47527144  0.37656351  0.53381379    -0.79500
C104        C  0.40602713  0.28404569  0.64651427     0.95800
O105        O  0.42716692  0.36432983  0.64134287    -0.77400
O106        O  0.49131728  0.30357951  0.62236698    -0.82600
C107        C  0.53952182  0.38317737  0.59823801     0.98400
C108        C  0.49396040  0.29242746  0.59310033     1.04300
O109        O  0.52568729  0.37171287  0.56904960    -0.78300
C110        C  0.44718293  0.37518682  0.66616842     1.02600
Fe111      Fe  0.23967551  0.24481680  0.25944191     1.65800
Fe112      Fe  0.17972728  0.18315743  0.21247842     1.73200
Fe113      Fe  0.17928601  0.17972644  0.30178627     1.54400
O114        O  0.22181818  0.19202104  0.32904018    -0.82000
O115        O  0.13522262  0.17706205  0.22683384    -0.80300
O116        O  0.25926692  0.23555869  0.30229237    -0.84500
O117        O  0.21787829  0.26285000  0.29062645    -0.79300
O118        O  0.17687939  0.13726262  0.28555604    -0.81100
O119        O  0.19048205  0.22554043  0.18645883    -0.83900
C120        C  0.19445977  0.25016957  0.31228366     0.96900
C121        C  0.25068618  0.21542097  0.32691550     1.04300
O122        O  0.19966176  0.20264970  0.25787358    -1.12800
O123        O  0.22293130  0.18765490  0.19607568    -0.75300
O124        O  0.26212731  0.22752505  0.22819279    -0.78800
O125        O  0.17918981  0.22028303  0.32026003    -0.79500
C126        C  0.25227774  0.20496084  0.20567667     0.95800
O127        O  0.22992791  0.26431012  0.21700529    -0.77400
O128        O  0.16496128  0.13667372  0.22932394    -0.82600
C129        C  0.11958252  0.16535210  0.25519169     0.98400
C130        C  0.16640308  0.12240951  0.25664183     1.04300
O131        O  0.13310862  0.16329461  0.28282333    -0.78300
C132        C  0.21188739  0.25491000  0.19052151     1.02600
Fe133      Fe  0.41311539  0.09136356  0.06838682     1.65800
Fe134      Fe  0.47687244  0.15293810  0.02486425     1.73200
Fe135      Fe  0.47447152  0.15256641  0.11441907     1.54400
O136        O  0.43131100  0.14822107  0.13056072    -0.82000
O137        O  0.52220209  0.16808568  0.04437231    -0.80300
O138        O  0.39164612  0.11155220  0.09652281    -0.84500
O139        O  0.42083803  0.07253649  0.11315265    -0.79300
O140        O  0.48835523  0.19873227  0.09601331    -0.81100
O141        O  0.47465848  0.11052039  0.01011855    -0.83900
C142        C  0.44077949  0.08103844  0.13798027     0.96900
C143        C  0.40210337  0.13315488  0.12010459     1.04300
O144        O  0.45475325  0.13239924  0.06919897    -1.12800
O145        O  0.43572026  0.14168482  0.99626617    -0.75300
O146        O  0.39533525  0.10039726  0.02360002    -0.78800
O147        O  0.46402150  0.10993950  0.14038518    -0.79500
C148        C  0.40627447  0.11979141  0.99816991     0.95800
O149        O  0.43386658  0.07023156  0.04036175    -0.77400
O150        O  0.48212381  0.19728451  0.03792303    -0.82600
C151        C  0.53533799  0.16843744  0.07313032     0.98400
C152        C  0.48956410  0.21239590  0.06701419     1.04300
O153        O  0.51957141  0.15919687  0.10171691    -0.78300
C154        C  0.45809089  0.08115225  0.01980589     1.02600
Fe155      Fe  0.23335098  0.00023686  0.73492026     1.65800
Fe156      Fe  0.17084165  0.99909196  0.69096835     1.73200
Fe157      Fe  0.16981672  0.99717662  0.77911136     1.54400
O158        O  0.17023288  0.95589880  0.79255260    -0.82000
O159        O  0.15134915  0.02570208  0.71188885    -0.80300
O160        O  0.21539277  0.96127922  0.76790358    -0.84500
O161        O  0.25287370  0.03221929  0.77660665    -0.79300
O162        O  0.12428403  0.96821721  0.75833602    -0.81100
O163        O  0.21151448  0.04198868  0.67855537    -0.83900
C164        C  0.24118111  0.03668550  0.80445454     0.96900
C165        C  0.18998279  0.94606701  0.78655233     1.04300
O166        O  0.19159430  0.99872847  0.73499285    -1.12800
O167        O  0.18704088  0.97336995  0.66132441    -0.75300
O168        O  0.22258522  0.96848838  0.69343454    -0.78800
O169        O  0.21107641  0.02496819  0.80850721    -0.79500
C170        C  0.20640998  0.96301122  0.66562485     0.95800
O171        O  0.25308825  0.03940128  0.70209250    -0.77400
O172        O  0.12835046  0.95648311  0.70289463    -0.82600
C173        C  0.15480634  0.04183065  0.73966005     0.98400
C174        C  0.11180035  0.95177174  0.73078734     1.04300
O175        O  0.16783631  0.03839711  0.76699455    -0.78300
C176        C  0.24133947  0.05382134  0.68526465     1.02600
Fe177      Fe  0.32339053  0.90583964  0.40321682     1.65800
Fe178      Fe  0.32994896  0.84779456  0.44758271     1.73200
Fe179      Fe  0.32610344  0.84552571  0.35803109     1.54400
O180        O  0.28468524  0.84504354  0.34285354    -0.82000
O181        O  0.36203488  0.83472480  0.42736746    -0.80300
O182        O  0.28211309  0.88348231  0.37351712    -0.84500
O183        O  0.35206285  0.92595716  0.35958023    -0.79300
O184        O  0.29636444  0.79952156  0.37809337    -0.81100
O185        O  0.36923745  0.89190817  0.46167333    -0.83900
C186        C  0.36254187  0.91734498  0.33371982     0.96900
C187        C  0.27019120  0.85985303  0.35224088     1.04300
O188        O  0.32659836  0.86648326  0.40296655    -1.12800
O189        O  0.29881778  0.85756920  0.47667706    -0.75300
O190        O  0.29402278  0.89420813  0.44685686    -0.78800
O191        O  0.35583734  0.88828645  0.33030345    -0.79500
C192        C  0.28783585  0.87652281  0.47355405     0.95800
O193        O  0.36442111  0.93011018  0.43338538    -0.77400
O194        O  0.29105486  0.80207411  0.43580127    -0.82600
C195        C  0.37439947  0.83443541  0.39793063     0.98400
C196        C  0.28359206  0.78615924  0.40720168     1.04300
O197        O  0.36652342  0.84244286  0.36962475    -0.78300
C198        C  0.37937938  0.92131197  0.45384227     1.02600
Fe199      Fe  0.57415621  0.90841373  0.92920609     1.65800
Fe200      Fe  0.51034932  0.85216251  0.97696883     1.73200
Fe201      Fe  0.50887278  0.84692098  0.88804010     1.54400
O202        O  0.52190005  0.88859330  0.85900392    -0.82000
O203        O  0.50584057  0.80761238  0.96727371    -0.80300
O204        O  0.56397319  0.92738245  0.88678270    -0.84500
O205        O  0.59216973  0.88644836  0.89765195    -0.79300
O206        O  0.46594756  0.84505406  0.90159167    -0.81100
O207        O  0.55210828  0.86627776  0.00559144    -0.83900
C208        C  0.57930951  0.86236541  0.87705844     0.96900
C209        C  0.54429027  0.91785375  0.86166186     1.04300
O210        O  0.53132141  0.86918426  0.93132873    -1.12800
O211        O  0.51275905  0.89548673  0.98727504    -0.75300
O212        O  0.55809962  0.93258118  0.96012510    -0.78800
O213        O  0.54916304  0.84595678  0.87098482    -0.79500
C214        C  0.53275233  0.92445454  0.97822525     0.95800
O215        O  0.59323554  0.89763910  0.97127641    -0.77400
O216        O  0.46430596  0.83461382  0.95830797    -0.82600
C217        C  0.49484711  0.79040146  0.93972707     0.98400
C218        C  0.45049993  0.83471093  0.93022867     1.04300
O219        O  0.49288923  0.80193446  0.91044540    -0.78300
C220        C  0.58219322  0.88362937  0.00021382     1.02600
Fe221      Fe  0.75345854  0.00273364  0.26680890     1.65800
Fe222      Fe  0.81748017  0.00576660  0.30932102     1.73200
Fe223      Fe  0.81623010  0.00666846  0.22012968     1.54400
O224        O  0.77433924  0.97625760  0.19265790    -0.82000
O225        O  0.86099328  0.04681048  0.29555811    -0.80300
O226        O  0.73419419  0.97288890  0.22419738    -0.84500
O227        O  0.77082370  0.04275402  0.23570683    -0.79300
O228        O  0.82106639  0.96693818  0.23236128    -0.81100
O229        O  0.80405694  0.03443015  0.33820937    -0.83900
C230        C  0.79461828  0.05760295  0.21481349     0.96900
C231        C  0.74452683  0.96600397  0.19695771     1.04300
O232        O  0.79567204  0.00519376  0.26544922    -1.12800
O233        O  0.77651511  0.96405874  0.32534513    -0.75300
O234        O  0.73454554  0.96254109  0.29776968    -0.78800
O235        O  0.81326445  0.04695201  0.20593774    -0.79500
C236        C  0.74662563  0.95046378  0.31790827     0.95800
O237        O  0.76288170  0.03198837  0.30987119    -0.77400
O238        O  0.83384750  0.97643447  0.28875996    -0.82600
C239        C  0.87626835  0.05122840  0.26679957     0.98400
C240        C  0.83161354  0.96131855  0.26048277     1.04300
O241        O  0.86211047  0.03700451  0.23876750    -0.78300
C242        C  0.78171086  0.04116872  0.33580742     1.02600
Fe243      Fe  0.64939343  0.08983731  0.59729000     1.65800
Fe244      Fe  0.65524317  0.15467961  0.55496897     1.73200
Fe245      Fe  0.65925532  0.15472808  0.64445472     1.54400
O246        O  0.62869679  0.11370201  0.67370341    -0.82000
O247        O  0.69707145  0.19720300  0.56755684    -0.80300
O248        O  0.62148842  0.07257543  0.64140470    -0.84500
O249        O  0.69128990  0.10634185  0.62519124    -0.79300
O250        O  0.62103046  0.16204588  0.63484540    -0.81100
O251        O  0.68392558  0.14109643  0.52609664    -0.83900
C252        C  0.70787983  0.13067696  0.64483295     0.96900
C253        C  0.61665877  0.08363990  0.66930506     1.04300
O254        O  0.65448492  0.13299187  0.59894383    -1.12800
O255        O  0.61278355  0.11444788  0.53865061    -0.75300
O256        O  0.60756908  0.07238325  0.56907083    -0.78800
O257        O  0.69846046  0.14975220  0.65539951    -0.79500
C258        C  0.59685446  0.08488853  0.54759819     0.95800
O259        O  0.67631270  0.09718461  0.55275172    -0.77400
O260        O  0.62686703  0.17155293  0.57716211    -0.82600
C261        C  0.70457137  0.21302455  0.59602751     0.98400
C262        C  0.61433149  0.17156863  0.60671850     1.04300
O263        O  0.69086789  0.20011628  0.62483600    -0.78300
C264        C  0.68832837  0.11721377  0.52797275     1.02600
Fe265      Fe  0.08005509  0.42111580  0.41518309     1.65800
Fe266      Fe  0.14279983  0.48358313  0.45626082     1.73200
Fe267      Fe  0.14198243  0.47858548  0.36679682     1.54400
O268        O  0.13516143  0.43319937  0.35379563    -0.82000
O269        O  0.15464315  0.52816957  0.43621999    -0.80300
O270        O  0.10165918  0.39790309  0.39440808    -0.84500
O271        O  0.06334982  0.42393394  0.36655483    -0.79300
O272        O  0.18782782  0.49089908  0.38384792    -0.81100
O273        O  0.09914365  0.47845957  0.47355964    -0.83900
C274        C  0.07168909  0.44416693  0.34202562     0.96900
C275        C  0.12256770  0.40623156  0.37007733     1.04300
O276        O  0.12183451  0.46151862  0.41263578    -1.12800
O277        O  0.13464763  0.44193976  0.48258244    -0.75300
O278        O  0.08539741  0.40747839  0.46453528    -0.78800
O279        O  0.09945606  0.46938752  0.34154955    -0.79500
C280        C  0.10813509  0.41559532  0.48595252     0.95800
O281        O  0.05960030  0.44519935  0.43672717    -0.77400
O282        O  0.18836660  0.49197677  0.44222140    -0.82600
C283        C  0.15756627  0.54123612  0.40645251     0.98400
C284        C  0.20241138  0.49544632  0.41282561     1.04300
O285        O  0.15158487  0.52537034  0.37784970    -0.78300
C286        C  0.07052751  0.46591491  0.46129794     1.02600
Fe287      Fe  0.89797111  0.33216701  0.07939112     1.65800
Fe288      Fe  0.83703996  0.33238151  0.03419221     1.73200
Fe289      Fe  0.83513086  0.33091620  0.12384618     1.54400
O290        O  0.83840825  0.29185352  0.14055362    -0.82000
O291        O  0.82113129  0.36242702  0.05280947    -0.80300
O292        O  0.87816767  0.29139173  0.10976993    -0.84500
O293        O  0.91602797  0.36088999  0.12277820    -0.79300
O294        O  0.78972253  0.29823956  0.10433236    -0.81100
O295        O  0.87941202  0.37309820  0.01914099    -0.83900
C296        C  0.90650121  0.37064158  0.14841933     0.96900
C297        C  0.85518089  0.27913810  0.13198471     1.04300
O298        O  0.85676831  0.33185408  0.07917503    -1.12800
O299        O  0.84948805  0.30288667  0.00650086    -0.75300
O300        O  0.88895325  0.30308585  0.03615543    -0.78800
O301        O  0.87708957  0.36304529  0.15139346    -0.79500
C302        C  0.87060183  0.29472161  0.00988888     0.95800
O303        O  0.91951604  0.37331059  0.04921407    -0.77400
O304        O  0.79311313  0.29198479  0.04694365    -0.82600
C305        C  0.82045291  0.37571819  0.08133828     0.98400
C306        C  0.77715748  0.28414028  0.07556033     1.04300
O307        O  0.82884093  0.36926440  0.11034600    -0.78300
C308        C  0.90895317  0.38624055  0.02809414     1.02600
Fe309      Fe  0.98976446  0.23968931  0.75064324     1.65800
Fe310      Fe  0.99457269  0.17920293  0.79252495     1.73200
Fe311      Fe  0.99002615  0.17918979  0.70325344     1.54400
O312        O  0.94919164  0.18073840  0.68927020    -0.82000
O313        O  0.02632538  0.16644605  0.77101510    -0.80300
O314        O  0.94885611  0.21989694  0.72090426    -0.84500
O315        O  0.01860726  0.26043027  0.70706799    -0.79300
O316        O  0.95955828  0.13305832  0.72217475    -0.81100
O317        O  0.03436971  0.22224969  0.80700463    -0.83900
C318        C  0.02756748  0.25114515  0.68047089     0.96900
C319        C  0.93620050  0.19702601  0.69882689     1.04300
O320        O  0.99135312  0.19937438  0.74883468    -1.12800
O321        O  0.96419179  0.18918220  0.82265036    -0.75300
O322        O  0.96059100  0.22742411  0.79442034    -0.78800
O323        O  0.01965331  0.22186314  0.67629581    -0.79500
C324        C  0.95409882  0.20893846  0.82043646     0.95800
O325        O  0.03063205  0.26190370  0.78055806    -0.77400
O326        O  0.95541717  0.13399950  0.78030963    -0.82600
C327        C  0.03955362  0.16779700  0.74166722     0.98400
C328        C  0.94719728  0.11911535  0.75111583     1.04300
O329        O  0.03067930  0.17544841  0.71370760    -0.78300
C330        C  0.04513434  0.25179849  0.79977659     1.02600
Fe331      Fe  0.08829327  0.67338090  0.91819059     1.65800
Fe332      Fe  0.14392870  0.66558746  0.96424561     1.73200
Fe333      Fe  0.14935177  0.67197127  0.87433726     1.54400
O334        O  0.10721893  0.64125905  0.84628490    -0.82000
O335        O  0.19106609  0.70167123  0.95354886    -0.80300
O336        O  0.07215363  0.65213735  0.87057601    -0.84500
O337        O  0.11364454  0.71757164  0.89544676    -0.79300
O338        O  0.15382240  0.63238815  0.88629244    -0.81100
O339        O  0.13736841  0.69979581  0.99155178    -0.83900
C340        C  0.13527148  0.72846561  0.87170697     0.96900
C341        C  0.07985668  0.63936526  0.84647649     1.04300
O342        O  0.12745546  0.67032122  0.91890142    -1.12800
O343        O  0.09819488  0.62811430  0.97784407    -0.75300
O344        O  0.06264999  0.62896520  0.94072633    -0.78800
O345        O  0.14792657  0.71276444  0.85902784    -0.79500
C346        C  0.07009975  0.61531838  0.96431997     0.95800
O347        O  0.09459088  0.69543517  0.96567783    -0.77400
O348        O  0.15338447  0.63092197  0.94477008    -0.82600
C349        C  0.20737750  0.71153146  0.92526740     0.98400
C350        C  0.15656773  0.62077665  0.91508838     1.04300
O351        O  0.19472235  0.70222698  0.89517450    -0.78300
C352        C  0.11451800  0.70578876  0.99049772     1.02600
Fe353      Fe  0.98524634  0.75527677  0.25099628     1.65800
Fe354      Fe  0.99337462  0.82199361  0.20997443     1.73200
Fe355      Fe  0.99325191  0.81892133  0.29858109     1.54400
O356        O  0.96426161  0.77647229  0.32649925    -0.82000
O357        O  0.03559253  0.86328254  0.22487801    -0.80300
O358        O  0.95086814  0.73591483  0.29010456    -0.84500
O359        O  0.02222279  0.76841033  0.28586335    -0.79300
O360        O  0.95335124  0.82378642  0.28745656    -0.81100
O361        O  0.02110199  0.80705390  0.18166156    -0.83900
C362        C  0.04058741  0.79387679  0.30310945     0.96900
C363        C  0.94912106  0.74647234  0.31992923     1.04300
O364        O  0.99042922  0.79847900  0.25306234    -1.12800
O365        O  0.95133031  0.78333479  0.19171917    -0.75300
O366        O  0.94850146  0.73937553  0.21547650    -0.78800
O367        O  0.03371041  0.81575004  0.30988955    -0.79500
C368        C  0.93793208  0.75300315  0.19556863     0.95800
O369        O  0.01851259  0.76642586  0.21146022    -0.77400
O370        O  0.96563980  0.83997102  0.23179037    -0.82600
C371        C  0.03944366  0.87910760  0.25291531     0.98400
C372        C  0.95025725  0.83727728  0.26014828     1.04300
O373        O  0.02331292  0.86555607  0.28042195    -0.78300
C374        C  0.02858599  0.78536024  0.18548042     1.02600
Fe375      Fe  0.90385855  0.57710287  0.58811834     1.65800
Fe376      Fe  0.84298101  0.51421038  0.54345625     1.73200
Fe377      Fe  0.84080423  0.51556572  0.63288421     1.54400
O378        O  0.88287014  0.52745494  0.66047269    -0.82000
O379        O  0.79884470  0.50985951  0.55544934    -0.80300
O380        O  0.92315883  0.56594938  0.62982078    -0.84500
O381        O  0.88546992  0.59793609  0.62017545    -0.79300
O382        O  0.83605027  0.47113029  0.62057970    -0.81100
O383        O  0.85558295  0.55606356  0.51531661    -0.83900
C384        C  0.86154319  0.58753937  0.64094161     0.96900
C385        C  0.91277147  0.54752796  0.65612577     1.04300
O386        O  0.86257805  0.53570061  0.58818678    -1.12800
O387        O  0.88532664  0.51606847  0.52880780    -0.75300
O388        O  0.92500499  0.55899697  0.55619352    -0.78800
O389        O  0.84305512  0.55785792  0.64831666    -0.79500
C390        C  0.91499132  0.53475302  0.53609809     0.95800
O391        O  0.89301486  0.59654479  0.54616055    -0.77400
O392        O  0.82683873  0.46853977  0.56325027    -0.82600
C393        C  0.78260694  0.50114194  0.58381854     0.98400
C394        C  0.82661691  0.45534474  0.59206304     1.04300
O395        O  0.79502581  0.50071209  0.61302737    -0.78300
C396        C  0.87551677  0.58592773  0.51919911     1.02600
C397        C  0.93080996  0.72250723  0.34845515    -0.20200
C398        C  0.92458721  0.73160645  0.38164794     0.36000
C399        C  0.91237341  0.70890790  0.40923008    -0.26200
C400        C  0.90603587  0.67721338  0.40457260     0.02500
C401        C  0.91078123  0.66766617  0.37114011     0.27300
C402        C  0.92268074  0.69016783  0.34352335    -0.25300
N403        N  0.93111763  0.76390187  0.38753513    -0.82700
H404        H  0.90831196  0.71612265  0.43478920     0.13100
C405        C  0.89652702  0.65486452  0.43527136     0.02400
N406        N  0.90477100  0.63547390  0.36568088    -0.81200
H407        H  0.92720861  0.68265043  0.31838920     0.17900
C408        C  0.86782314  0.62474299  0.43447507    -0.26100
C409        C  0.85972648  0.60188621  0.46156127     0.36000
C410        C  0.88055756  0.60957591  0.49073483    -0.20100
C411        C  0.90860623  0.64041219  0.49191791    -0.25400
C412        C  0.91698843  0.66278156  0.46450074     0.27300
H413        H  0.85201823  0.61873746  0.41209266     0.13100
N414        N  0.83049971  0.57107568  0.45926477    -0.82600
H415        H  0.92500362  0.64682198  0.51379153     0.17900
N416        N  0.94682353  0.69317253  0.46574432    -0.81200
H417        H  0.81673533  0.57051108  0.43786459     0.33600
H418        H  0.83710903  0.55384562  0.45396430     0.38100
H419        H  0.95909700  0.69542627  0.48906137     0.33500
H420        H  0.96159790  0.69330072  0.44541730     0.30200
H421        H  0.90932011  0.63219090  0.33960668     0.33500
H422        H  0.92123801  0.63273804  0.38090846     0.30200
H423        H  0.91540516  0.76730864  0.37169032     0.38100
H424        H  0.92574966  0.76675555  0.41341541     0.33600
C425        C  0.10908041  0.72434389  0.01893114    -0.20200
C426        C  0.12640024  0.73375200  0.05085967     0.36000
C427        C  0.11683504  0.74760572  0.07774442    -0.26200
C428        C  0.09026062  0.75211614  0.07369562     0.02500
C429        C  0.07392712  0.74407990  0.04143571     0.27300
C430        C  0.08370425  0.73081831  0.01451487    -0.25300
N431        N  0.15320254  0.72886386  0.05630867    -0.82700
H432        H  0.12958533  0.75408144  0.10245361     0.13100
C433        C  0.07801656  0.76287564  0.10398806     0.02400
N434        N  0.04663043  0.74833437  0.03650210    -0.81200
H435        H  0.07036762  0.72440653  0.99019530     0.17900
C436        C  0.07576859  0.79083306  0.10130502    -0.26100
C437        C  0.06128404  0.79979887  0.12802943     0.36000
C438        C  0.04824958  0.78009822  0.15816243    -0.20100
C439        C  0.05182017  0.75279420  0.16117467    -0.25400
C440        C  0.06622892  0.74391736  0.13451154     0.27300
H441        H  0.08500232  0.80550767  0.07792639     0.13100
N442        N  0.05945830  0.82855349  0.12426054    -0.82600
H443        H  0.04221648  0.73737721  0.18396596     0.17900
N444        N  0.06790461  0.71501012  0.13781412    -0.81200
H445        H  0.06938890  0.83976048  0.10030116     0.33600
H446        H  0.07391460  0.84469917  0.14374858     0.38100
H447        H  0.05835151  0.70379766  0.16189850     0.33500
H448        H  0.05321529  0.69890380  0.11845704     0.30200
H449        H  0.03737875  0.74150855  0.01119912     0.33500
H450        H  0.02837830  0.73268516  0.05369190     0.30200
H451        H  0.14396161  0.70402574  0.05818994     0.38100
H452        H  0.16426373  0.73869200  0.08031654     0.33600
C453        C  0.05539689  0.62189150  0.81828329    -0.20200
C454        C  0.02858918  0.62645346  0.81405155     0.36000
C455        C  0.00536129  0.60925255  0.78839215    -0.26200
C456        C  0.00765474  0.58719973  0.76631203     0.02500
C457        C  0.03434384  0.58256714  0.76996725     0.27300
C458        C  0.05800620  0.60005807  0.79575559    -0.25300
N459        N  0.02489173  0.64903642  0.83529879    -0.82700
H460        H  0.98551762  0.61370044  0.78529161     0.13100
C461        C  0.98277537  0.57109833  0.73832337     0.02400
N462        N  0.03714141  0.55991946  0.74773804    -0.81200
H463        H  0.07825112  0.59622946  0.79859067     0.17900
C464        C  0.99254980  0.57532862  0.70310506    -0.26100
C465        C  0.96992955  0.56573733  0.67586665     0.36000
C466        C  0.93659231  0.55160183  0.68363320    -0.20100
C467        C  0.92664455  0.54523332  0.71885318    -0.25400
C468        C  0.94932946  0.55486760  0.74621915     0.27300
H469        H  0.01805986  0.58766011  0.69662038     0.13100
N470        N  0.98109706  0.57103601  0.64028955    -0.82600
H471        H  0.90120466  0.53427995  0.72522689     0.17900
N472        N  0.93861145  0.54918907  0.78209569    -0.81200
H473        H  0.99368853  0.55883499  0.63607740     0.33600
H474        H  0.99730647  0.59570801  0.63695770     0.38100
H475        H  0.91339018  0.53735081  0.78354099     0.33500
H476        H  0.94542421  0.53356601  0.79282030     0.30200
H477        H  0.05806003  0.55930625  0.75365845     0.33500
H478        H  0.01758997  0.53699461  0.75333580     0.30200
H479        H  0.02420976  0.66598683  0.81880444     0.38100
H480        H  0.00271158  0.63654169  0.84844627     0.33600
C481        C  0.93579294  0.21262026  0.84999549    -0.20200
C482        C  0.94910005  0.22051726  0.88395797     0.36000
C483        C  0.93475644  0.23046917  0.90970179    -0.26200
C484        C  0.90683714  0.23205044  0.90272935     0.02500
C485        C  0.89268867  0.22266935  0.86914614     0.27300
C486        C  0.90760293  0.21362777  0.84306956    -0.25300
N487        N  0.97845874  0.22062916  0.89149517    -0.82700
H488        H  0.94620180  0.23821396  0.93503651     0.13100
C489        C  0.89417104  0.24558811  0.93002147     0.02400
N490        N  0.86347820  0.22279417  0.86146852    -0.81200
H491        H  0.89751005  0.20786866  0.81694560     0.17900
C492        C  0.88875860  0.27082632  0.92104050    -0.26100
C493        C  0.87917974  0.28589927  0.94627295     0.36000
C494        C  0.87549381  0.27607225  0.98166330    -0.20100
C495        C  0.88065119  0.25073222  0.99069961    -0.25400
C496        C  0.88941717  0.23509116  0.96529187     0.27300
H497        H  0.89305654  0.27959120  0.89432385     0.13100
N498        N  0.87530443  0.31257400  0.93642084    -0.82600
H499        H  0.87808477  0.24329188  0.01785546     0.17900
N500        N  0.89378878  0.20876122  0.97527318    -0.81200
H501        H  0.88094882  0.31815703  0.90993098     0.33600
H502        H  0.85083238  0.30514724  0.93915453     0.38100
H503        H  0.88963054  0.20415501  0.00212108     0.33500
H504        H  0.87625226  0.18812337  0.96234489     0.30200
H505        H  0.85630372  0.21546844  0.83565704     0.33500
H506        H  0.84523612  0.20562512  0.87763044     0.30200
H507        H  0.97323525  0.19674711  0.89060790     0.38100
H508        H  0.98609087  0.22872258  0.91705098     0.33600
C509        C  0.04541315  0.58220756  0.97466836    -0.20200
C510        C  0.04766863  0.56792739  0.00600179     0.36000
C511        C  0.02550812  0.53522354  0.01229530    -0.26200
C512        C  0.00126520  0.51666099  0.98803376     0.02500
C513        C  0.99858202  0.53094235  0.95710803     0.27300
C514        C  0.02049627  0.56360643  0.95088145    -0.25300
N515        N  0.07224365  0.58657316  0.03132563    -0.82700
H516        H  0.02689995  0.52416271  0.03639459     0.13100
C517        C  0.97787299  0.48259977  0.99609550     0.02400
N518        N  0.97393823  0.51203384  0.93191725    -0.81200
H519        H  0.01873616  0.57421951  0.92661661     0.17900
C520        C  0.94506572  0.47281322  0.99801105    -0.26100
C521        C  0.92200152  0.44125366  0.00744790     0.36000
C522        C  0.93200690  0.41882144  0.01475300    -0.20100
C523        C  0.96493681  0.42860429  0.01226204    -0.25400
C524        C  0.98800898  0.46031656  0.00289079     0.27300
H525        H  0.93757551  0.49028081  0.99330053     0.13100
N526        N  0.88876762  0.43250688  0.01136940    -0.82600
H527        H  0.97272505  0.41153039  0.01793246     0.17900
N528        N  0.02164431  0.47007470  0.00043634    -0.81200
H529        H  0.88549132  0.45163475  0.00419901     0.33600
H530        H  0.88316834  0.42848060  0.03804983     0.38100
H531        H  0.02507305  0.45083098  0.00649561     0.33500
H532        H  0.02879565  0.47618801  0.97433133     0.30200
H533        H  0.97516013  0.52623398  0.91062727     0.33500
H534        H  0.97865855  0.49449793  0.92209110     0.30200
H535        H  0.06763427  0.60418530  0.04114900     0.38100
H536        H  0.07074598  0.57223749  0.05260233     0.33600
C537        C  0.93915082  0.52708719  0.52285037    -0.20200
C538        C  0.93362949  0.50753080  0.49307243     0.36000
C539        C  0.95589755  0.49786898  0.48459377    -0.26200
C540        C  0.98333776  0.50742602  0.50524694     0.02500
C541        C  0.98948221  0.52788419  0.53418666     0.27300
C542        C  0.96746167  0.53774100  0.54249487    -0.25300
N543        N  0.90562744  0.49762423  0.47162766    -0.82700
H544        H  0.95190676  0.48281030  0.46180835     0.13100
C545        C  0.00577485  0.49624706  0.49589820     0.02400
N546        N  0.01764863  0.53792183  0.55544536    -0.81200
H547        H  0.97184815  0.55273549  0.56541390     0.17900
C548        C  0.03815373  0.51923383  0.48910102    -0.26100
C549        C  0.06009734  0.50974101  0.47887840     0.36000
C550        C  0.04918382  0.47660879  0.47537697    -0.20100
C551        C  0.01686848  0.45356004  0.48247293    -0.25400
C552        C  0.99500106  0.46307956  0.49312259     0.27300
H553        H  0.04607442  0.54467959  0.49088572     0.13100
N554        N  0.09299326  0.53355825  0.47061744    -0.82600
H555        H  0.00874256  0.42813495  0.47959520     0.17900
N556        N  0.96197260  0.43936861  0.50096542    -0.81200
H557        H  0.09709379  0.55681711  0.47500952     0.33600
H558        H  0.09640297  0.53191775  0.44378183     0.38100
H559        H  0.95800436  0.41606017  0.49735160     0.33500
H560        H  0.95799877  0.44150091  0.52753420     0.30200
H561        H  0.01874675  0.55329260  0.57554061     0.33500
H562        H  0.01534236  0.51737263  0.56748950     0.30200
H563        H  0.90773450  0.51838503  0.46030978     0.38100
H564        H  0.90514224  0.48304560  0.45098011     0.33600
C565        C  0.10175336  0.39354206  0.51616083    -0.20200
C566        C  0.12320152  0.38314104  0.52662139     0.36000
C567        C  0.11353332  0.35933569  0.55305523    -0.26200
C568        C  0.08314832  0.34625200  0.56950228     0.02500
C569        C  0.06227338  0.35744535  0.55980217     0.27300
C570        C  0.07162647  0.38060868  0.53312491    -0.25300
N571        N  0.15399332  0.39568851  0.50950865    -0.82700
H572        H  0.12963422  0.35086299  0.56079290     0.13100
C573        C  0.07313436  0.32127117  0.59739309     0.02400
N574        N  0.03174602  0.34550620  0.57745832    -0.81200
H575        H  0.05515794  0.38864312  0.52538352     0.17900
C576        C  0.07954649  0.33104522  0.63249036    -0.26100
C577        C  0.06640512  0.30848648  0.66007449     0.36000
C578        C  0.04629888  0.27525532  0.65243241    -0.20100
C579        C  0.04133450  0.26541646  0.61712890    -0.25400
C580        C  0.05424974  0.28807565  0.58957621     0.27300
H581        H  0.09403693  0.35655172  0.63837761     0.13100
N582        N  0.07297841  0.31930733  0.69582487    -0.82600
H583        H  0.02591144  0.24008369  0.61096118     0.17900
N584        N  0.04774260  0.27755378  0.55371392    -0.81200
H585        H  0.08790407  0.34438017  0.69695713     0.33600
H586        H  0.08592694  0.30950431  0.70701807     0.38100
H587        H  0.03370086  0.25241751  0.55240448     0.33500
H588        H  0.03385418  0.28643844  0.54284613     0.30200
H589        H  0.01957301  0.35674374  0.56786449     0.33500
H590        H  0.01734215  0.32098247  0.57158986     0.30200
H591        H  0.16791028  0.42012007  0.51594347     0.38100
H592        H  0.16628471  0.38461312  0.51928387     0.33600
C593        C  0.04785894  0.43714988  0.31324510    -0.20200
C594        C  0.02561757  0.40487690  0.30321315     0.36000
C595        C  0.00249777  0.39863296  0.27719380    -0.26200
C596        C  0.00110522  0.42369074  0.26030009     0.02500
C597        C  0.02344547  0.45589460  0.26963964     0.27300
C598        C  0.04657912  0.46232784  0.29603322    -0.25300
N599        N  0.02706188  0.37845494  0.31882880    -0.82700
H600        H  0.98582968  0.37396911  0.26936361     0.13100
C601        C  0.97812432  0.41535171  0.23053822     0.02400
N602        N  0.02248082  0.48188453  0.25236644    -0.81200
H603        H  0.06345718  0.48704690  0.30340967     0.17900
C604        C  0.94687821  0.41024689  0.23606509    -0.26100
C605        C  0.92333150  0.39775500  0.20918784     0.36000
C606        C  0.93115169  0.38977472  0.17615729    -0.20100
C607        C  0.96322362  0.39691344  0.17052118    -0.25400
C608        C  0.98646853  0.40924289  0.19720872     0.27300
H609        H  0.94056258  0.41506766  0.26176068     0.13100
N610        N  0.89142868  0.39222865  0.21585521    -0.82600
H611        H  0.97010762  0.39159845  0.14542078     0.17900
N612        N  0.01825587  0.41418624  0.19107505    -0.81200
H613        H  0.88946585  0.39852640  0.24160007     0.33600
H614        H  0.88816578  0.40784601  0.19966591     0.38100
H615        H  0.02044304  0.40778666  0.16543818     0.33500
H616        H  0.03474637  0.43888061  0.19344740     0.30200
H617        H  0.04027617  0.50408216  0.26238068     0.33500
H618        H  0.02821741  0.48150943  0.22597037     0.30200
H619        H  0.04910797  0.38063553  0.31152948     0.38100
H620        H  0.00896822  0.35638249  0.30880921     0.33600
C621        C  0.90426202  0.18850465  0.68489739    -0.20200
C622        C  0.88108248  0.15628212  0.67654942     0.36000
C623        C  0.84994570  0.14871333  0.66705102    -0.26200
C624        C  0.84128513  0.17242161  0.66670008     0.02500
C625        C  0.86436194  0.20470521  0.67418293     0.27300
C626        C  0.89576229  0.21248919  0.68315523    -0.25300
N627        N  0.88849709  0.13101865  0.67999361    -0.82700
H628        H  0.83177922  0.12386801  0.66164455     0.13100
C629        C  0.80724545  0.16227567  0.66078398     0.02400
N630        N  0.85560144  0.22919408  0.67317228    -0.81200
H631        H  0.91348266  0.23725115  0.68950062     0.17900
C632        C  0.78942497  0.16561319  0.68802997    -0.26100
C633        C  0.75633520  0.15417675  0.68423029     0.36000
C634        C  0.74108585  0.13902863  0.65263648    -0.20100
C635        C  0.75896808  0.13533415  0.62564459    -0.25400
C636        C  0.79205322  0.14719389  0.62925531     0.27300
H637        H  0.80133842  0.17680169  0.71241581     0.13100
N638        N  0.73818282  0.15771299  0.71221766    -0.82600
H639        H  0.74738402  0.12440855  0.60103000     0.17900
N640        N  0.81045119  0.14446406  0.60095614    -0.81200
H641        H  0.75312746  0.16950950  0.73357547     0.33600
H642        H  0.72105540  0.13457279  0.72078612     0.38100
H643        H  0.79558493  0.13270680  0.57954275     0.33500
H644        H  0.82719475  0.16783399  0.59262769     0.30200
H645        H  0.87537596  0.25170476  0.67964456     0.33500
H646        H  0.84955428  0.23089011  0.64732981     0.30200
H647        H  0.89183323  0.12898733  0.70669292     0.38100
H648        H  0.86889922  0.10883243  0.67228972     0.33600
C649        C  0.81308829  0.41986710  0.59197335    -0.20200
C650        C  0.78507581  0.39970020  0.57234612     0.36000
C651        C  0.77162484  0.36618688  0.57306747    -0.26200
C652        C  0.78563796  0.35208848  0.59283261     0.02500
C653        C  0.81431338  0.37197086  0.61155742     0.27300
C654        C  0.82755068  0.40577686  0.61138963    -0.25300
N655        N  0.76938276  0.41310675  0.55264621    -0.82700
H656        H  0.74955921  0.35097377  0.55874793     0.13100
C657        C  0.76813803  0.31641752  0.59560957     0.02400
N658        N  0.83024606  0.35786311  0.62981667    -0.81200
H659        H  0.84932944  0.42114852  0.62603328     0.17900
C660        C  0.77041567  0.29789276  0.56845769    -0.26100
C661        C  0.75090835  0.26394327  0.56835872     0.36000
C662        C  0.72858997  0.24831027  0.59604143    -0.20100
C663        C  0.72710813  0.26715396  0.62352844    -0.25400
C664        C  0.74619650  0.30092203  0.62332087     0.27300
H665        H  0.78693187  0.31006161  0.54689261     0.13100
N666        N  0.75340250  0.24549417  0.54007097    -0.82600
H667        H  0.70980583  0.25563900  0.64461812     0.17900
N668        N  0.74188198  0.31966343  0.64998525    -0.81200
H669        H  0.77049520  0.26069392  0.52161011     0.33600
H670        H  0.76204638  0.23122754  0.55048247     0.38100
H671        H  0.72377980  0.30464876  0.66766955     0.33500
H672        H  0.76321192  0.33176988  0.66437508     0.30200
H673        H  0.85135218  0.37580318  0.64163073     0.33500
H674        H  0.81509422  0.34348627  0.65005220     0.30200
H675        H  0.76836805  0.40614976  0.52647887     0.38100
H676        H  0.74571143  0.40313308  0.56199449     0.33600
C677        C  0.80128469  0.08927638  0.20136781    -0.20200
C678        C  0.79156166  0.10833141  0.22051569     0.36000
C679        C  0.79939138  0.13868605  0.20774657    -0.26200
C680        C  0.81685284  0.15064713  0.17660644     0.02500
C681        C  0.82607085  0.13167810  0.15703729     0.27300
C682        C  0.81837653  0.10119418  0.16974377    -0.25300
N683        N  0.77471714  0.09740983  0.25343855    -0.82700
H684        H  0.79270607  0.15362783  0.22274605     0.13100
C685        C  0.82645042  0.18376623  0.16584913     0.02400
N686        N  0.84316249  0.14351050  0.12441745    -0.81200
H687        H  0.82565397  0.08667302  0.15486473     0.17900
C688        C  0.85940031  0.20689233  0.16329276    -0.26100
C689        C  0.86956034  0.23878900  0.15382258     0.36000
C690        C  0.84616772  0.24750528  0.14682509    -0.20100
C691        C  0.81322721  0.22462077  0.15066950    -0.25400
C692        C  0.80309158  0.19267864  0.15976911     0.27300
H693        H  0.87718882  0.19999599  0.16888412     0.13100
N694        N  0.90342318  0.26234492  0.15138094    -0.82600
H695        H  0.79529536  0.23131309  0.14498328     0.17900
N696        N  0.76923563  0.16907909  0.16210889    -0.81200
H697        H  0.91738887  0.25191858  0.15727512     0.33600
H698        H  0.90850629  0.27984226  0.17054005     0.38100
H699        H  0.75525347  0.17962183  0.15692590     0.33500
H700        H  0.76407725  0.15198797  0.14242599     0.30200
H701        H  0.84818320  0.12662530  0.11324112     0.33500
H702        H  0.82780715  0.14603742  0.10710173     0.30200
H703        H  0.79068372  0.09665711  0.27137216     0.38100
H704        H  0.76856829  0.11389989  0.26341566     0.33600
C705        C  0.70688501  0.11074497  0.50029845    -0.20200
C706        C  0.72923939  0.13441594  0.47680133     0.36000
C707        C  0.74514901  0.12577485  0.45128581    -0.26200
C708        C  0.73902770  0.09394900  0.44827055     0.02500
C709        C  0.71700503  0.07048983  0.47185223     0.27300
C710        C  0.70163952  0.07915269  0.49759223    -0.25300
N711        N  0.73619919  0.16715874  0.47909733    -0.82700
H712        H  0.76210251  0.14386885  0.43324807     0.13100
C713        C  0.75390996  0.08461545  0.41910460     0.02400
N714        N  0.70959439  0.03759887  0.46897573    -0.81200
H715        H  0.68458792  0.06057583  0.51513496     0.17900
C716        C  0.77272841  0.07056903  0.42675603    -0.26100
C717        C  0.78335461  0.05745262  0.40013306     0.36000
C718        C  0.77554754  0.05886157  0.36467727    -0.20100
C719        C  0.75783424  0.07421169  0.35710867    -0.25400
C720        C  0.74683831  0.08681956  0.38376524     0.27300
H721        H  0.77809011  0.06871770  0.45388014     0.13100
N722        N  0.80071510  0.04144611  0.40932991    -0.82600
H723        H  0.75149282  0.07541723  0.33020687     0.17900
N724        N  0.72743452  0.10079366  0.37513349    -0.81200
H725        H  0.80510712  0.04316657  0.43625686     0.33600
H726        H  0.78574196  0.01689408  0.40387814     0.38100
H727        H  0.72439384  0.10068959  0.34804028     0.33500
H728        H  0.70443582  0.08607921  0.38591715     0.30200
H729        H  0.69305664  0.02327280  0.48834583     0.33500
H730        H  0.69818014  0.02866840  0.44492752     0.30200
H731        H  0.71566685  0.16747266  0.47078313     0.38100
H732        H  0.75467667  0.18184516  0.46158755     0.33600
C733        C  0.84288052  0.93719334  0.26117954    -0.20200
C734        C  0.83940800  0.91683226  0.23250662     0.36000
C735        C  0.85362401  0.89725981  0.23394414    -0.26200
C736        C  0.87050510  0.89682745  0.26365400     0.02500
C737        C  0.87254575  0.91567394  0.29288624     0.27300
C738        C  0.85882234  0.93550979  0.29138057    -0.25300
N739        N  0.82189166  0.91626342  0.20187949    -0.82700
H740        H  0.85214734  0.88275048  0.21147325     0.13100
C741        C  0.88962068  0.88015994  0.26232965     0.02400
N742        N  0.88986921  0.91570702  0.32349546    -0.81200
H743        H  0.86151061  0.95047682  0.31383802     0.17900
C744        C  0.92133567  0.89742548  0.24950732    -0.26100
C745        C  0.94116837  0.88370241  0.24830523     0.36000
C746        C  0.92934762  0.85200489  0.26106344    -0.20100
C747        C  0.89755940  0.83469096  0.27422838    -0.25400
C748        C  0.87740755  0.84832593  0.27455584     0.27300
H749        H  0.93067142  0.92188444  0.24029599     0.13100
N750        N  0.97373710  0.90239745  0.23526537    -0.82600
H751        H  0.88828012  0.81031726  0.28365976     0.17900
N752        N  0.84450737  0.82979546  0.28652450    -0.81200
H753        H  0.97964664  0.92615208  0.23032289     0.33600
H754        H  0.97468725  0.89279178  0.21099557     0.38100
H755        H  0.83908091  0.80667208  0.29395241     0.33500
H756        H  0.84217219  0.84088415  0.30904335     0.30200
H757        H  0.88990222  0.93145064  0.34244435     0.33500
H758        H  0.87735888  0.89262205  0.33447372     0.30200
H759        H  0.79772188  0.90665771  0.20930821     0.38100
H760        H  0.82220700  0.90059458  0.18303311     0.33600
C761        C  0.60572868  0.88997255  0.02897999    -0.20200
C762        C  0.59787045  0.87075930  0.05956963     0.36000
C763        C  0.62104857  0.87971044  0.08634530    -0.26200
C764        C  0.65140392  0.90806812  0.08403644     0.02500
C765        C  0.65914569  0.92730446  0.05371077     0.27300
C766        C  0.63663841  0.91774276  0.02642204    -0.25300
N767        N  0.56658663  0.84233002  0.06356943    -0.82700
H768        H  0.61510044  0.86494265  0.10965371     0.13100
C769        C  0.67418530  0.91870500  0.11426766     0.02400
N770        N  0.68945971  0.95714900  0.05121838    -0.81200
H771        H  0.64292838  0.93307435  0.00354607     0.17900
C772        C  0.70621869  0.92610310  0.10902612    -0.26100
C773        C  0.72967719  0.94072372  0.13550887     0.36000
C774        C  0.72059631  0.94693382  0.16879673    -0.20100
C775        C  0.68785751  0.93734499  0.17446061    -0.25400
C776        C  0.66487841  0.92407404  0.14753535     0.27300
H777        H  0.71328530  0.92175556  0.08350299     0.13100
N778        N  0.76268291  0.95008514  0.12806805    -0.82600
H779        H  0.68025792  0.94168700  0.19964980     0.17900
N780        N  0.63243376  0.91737845  0.15347619    -0.81200
H781        H  0.76470022  0.94191583  0.10328035     0.33600
H782        H  0.77590583  0.97526620  0.12675604     0.38100
H783        H  0.62941912  0.92258200  0.17936406     0.33500
H784        H  0.62889156  0.93300728  0.13764383     0.30200
H785        H  0.69150490  0.96845582  0.02722081     0.33500
H786        H  0.68957079  0.97260800  0.07062807     0.30200
H787        H  0.54992585  0.84992177  0.06781973     0.38100
H788        H  0.56580925  0.82969367  0.08612637     0.33600
C789        C  0.59798250  0.05995640  0.69789745    -0.20200
C790        C  0.59589377  0.06932827  0.73261942     0.36000
C791        C  0.58311296  0.04582638  0.75939652    -0.26200
C792        C  0.57268441  0.01323565  0.75249986     0.02500
C793        C  0.57336803  0.00366817  0.71773909     0.27300
C794        C  0.58530236  0.02685714  0.69093236    -0.25300
N795        N  0.60780776  0.10263989  0.74099822    -0.82700
H796        H  0.58223985  0.05310579  0.78608635     0.13100
C797        C  0.56394758  0.98985169  0.78200826     0.02400
N798        N  0.56345277  0.97063669  0.70997002    -0.81200
H799        H  0.58627316  0.01901378  0.66455713     0.17900
C800        C  0.53420277  0.96063122  0.78203586    -0.26100
C801        C  0.52668018  0.93673932  0.80773869     0.36000
C802        C  0.54930236  0.94233986  0.83440052    -0.20100
C803        C  0.57869146  0.97207723  0.83461608    -0.25400
C804        C  0.58637468  0.99553530  0.80868878     0.27300
H805        H  0.51695161  0.95628129  0.76153828     0.13100
N806        N  0.49637816  0.90687049  0.80649553    -0.82600
H807        H  0.59651548  0.97682810  0.85455331     0.17900
N808        N  0.61739958  0.02472240  0.80874023    -0.81200
H809        H  0.48297965  0.90630473  0.78472894     0.33600
H810        H  0.48301998  0.90601114  0.82861309     0.38100
H811        H  0.63108988  0.02531318  0.83023066     0.33500
H812        H  0.62994127  0.02450636  0.78635186     0.30200
H813        H  0.56534518  0.96748600  0.68312651     0.33500
H814        H  0.57958319  0.96534983  0.72237052     0.30200
H815        H  0.59289580  0.10948487  0.72849499     0.38100
H816        H  0.60566085  0.10550652  0.76786155     0.33600
C817        C  0.41490177  0.82051611  0.93141463    -0.20200
C818        C  0.39565471  0.79361311  0.95315370     0.36000
C819        C  0.36198383  0.77929709  0.95308093    -0.26200
C820        C  0.34683689  0.79121163  0.93177368     0.02500
C821        C  0.36577715  0.81877084  0.91092863     0.27300
C822        C  0.39973227  0.83300933  0.91064271    -0.25300
N823        N  0.41010450  0.77978414  0.97430657    -0.82700
H824        H  0.34747595  0.75804656  0.96896984     0.13100
C825        C  0.31113154  0.77238491  0.92914457     0.02400
N826        N  0.35048643  0.83232165  0.89052413    -0.81200
H827        H  0.41435419  0.85387426  0.89430785     0.17900
C828        C  0.29193212  0.77655520  0.95406099    -0.26100
C829        C  0.25792314  0.75727785  0.95332921     0.36000
C830        C  0.24298073  0.73355277  0.92696507    -0.20100
C831        C  0.26247149  0.72952072  0.90219130    -0.25400
C832        C  0.29632547  0.74831584  0.90334330     0.27300
H833        H  0.30356088  0.79465050  0.97429975     0.13100
N834        N  0.23859965  0.76174524  0.97913163    -0.82600
H835        H  0.25124374  0.71084371  0.88245708     0.17900
N836        N  0.31582670  0.74212322  0.87939741    -0.81200
H837        H  0.25330761  0.77991943  0.99681024     0.33600
H838        H  0.22491585  0.76979900  0.96610794     0.38100
H839        H  0.30125823  0.72287647  0.86279721     0.33500
H840        H  0.32855282  0.76238518  0.86341857     0.30200
H841        H  0.36781236  0.85286542  0.87720737     0.33500
H842        H  0.33640281  0.81550649  0.87139808     0.30200
H843        H  0.40356202  0.78015223  0.00040802     0.38100
H844        H  0.40054668  0.75571767  0.96679630     0.33600
C845        C  0.23716698  0.84820710  0.33944798    -0.20200
C846        C  0.21480312  0.81486904  0.33520740     0.36000
C847        C  0.18232673  0.80469268  0.32838422    -0.26200
C848        C  0.17196400  0.82708951  0.32564747     0.02500
C849        C  0.19457793  0.86034007  0.32760144     0.27300
C850        C  0.22689470  0.87056577  0.33499832    -0.25300
N851        N  0.22471024  0.79141061  0.33938996    -0.82700
H852        H  0.16478068  0.77915712  0.32648776     0.13100
C853        C  0.13723916  0.81561346  0.32162758     0.02400
N854        N  0.18447279  0.88350699  0.32231171    -0.81200
H855        H  0.24410038  0.89611026  0.33775410     0.17900
C856        C  0.12167719  0.82455314  0.34673166    -0.26100
C857        C  0.08946223  0.81661211  0.34231938     0.36000
C858        C  0.07261046  0.79910082  0.31241123    -0.20100
C859        C  0.08774551  0.78864700  0.28838456    -0.25400
C860        C  0.12001773  0.79704616  0.29245792     0.27300
H861        H  0.13499549  0.83833679  0.36945968     0.13100
N862        N  0.07395722  0.82641622  0.36780218    -0.82600
H863        H  0.07491091  0.77536919  0.26519728     0.17900
N864        N  0.13570190  0.78787799  0.26646693    -0.81200
H865        H  0.08983259  0.83922301  0.38817193     0.33600
H866        H  0.05493249  0.80549986  0.37891487     0.38100
H867        H  0.11953748  0.77420646  0.24663941     0.33500
H868        H  0.15378773  0.80898202  0.25466068     0.30200
H869        H  0.20404936  0.90698748  0.32469541     0.33500
H870        H  0.17638841  0.88103459  0.29647691     0.30200
H871        H  0.23092479  0.79179237  0.36565203     0.38100
H872        H  0.20547157  0.76814438  0.33446877     0.33600
C873        C  0.41047279  0.94653979  0.46847752    -0.20200
C874        C  0.43647450  0.94100670  0.47277050     0.36000
C875        C  0.46580238  0.96568782  0.48609032    -0.26200
C876        C  0.46983028  0.99580669  0.49482053     0.02500
C877        C  0.44415737  0.00163624  0.49034186     0.27300
C878        C  0.41467760  0.97693293  0.47694660    -0.25300
N879        N  0.43331082  0.91067166  0.46279864    -0.82700
H880        H  0.48584325  0.96158484  0.48944800     0.13100
C881        C  0.50108551  0.02044621  0.50952280     0.02400
N882        N  0.44807800  0.03239863  0.49972929    -0.81200
H883        H  0.39478419  0.98124135  0.47353776     0.17900
C884        C  0.52176600  0.04793837  0.48987657    -0.26100
C885        C  0.55306752  0.07004095  0.50178010     0.36000
C886        C  0.56381196  0.06392672  0.53377553    -0.20100
C887        C  0.54239281  0.03678577  0.55370947    -0.25400
C888        C  0.51116494  0.01515984  0.54202354     0.27300
H889        H  0.51365806  0.05172975  0.46486621     0.13100
N890        N  0.57409626  0.09777523  0.48088794    -0.82600
H891        H  0.54999937  0.03233684  0.57869294     0.17900
N892        N  0.48965370  0.98751635  0.56278358    -0.81200
H893        H  0.56326804  0.09704960  0.45694943     0.33600
H894        H  0.57678235  0.11809247  0.49402345     0.38100
H895        H  0.50085922  0.98692594  0.58594126     0.33500
H896        H  0.47009279  0.99013496  0.57014978     0.30200
H897        H  0.42686336  0.03275032  0.49480723     0.33500
H898        H  0.45182140  0.03525985  0.52677674     0.30200
H899        H  0.43008807  0.90834129  0.43565375     0.38100
H900        H  0.45460245  0.91053177  0.46793982     0.33600
C901        C  0.26015191  0.75039226  0.40694335    -0.20200
C902        C  0.23823224  0.73369630  0.43469626     0.36000
C903        C  0.21818858  0.69976838  0.43300163    -0.26200
C904        C  0.21985974  0.68181185  0.40468948     0.02500
C905        C  0.24093210  0.69849425  0.37657244     0.27300
C906        C  0.26039938  0.73234155  0.37783491    -0.25300
N907        N  0.23605518  0.75098301  0.46438617    -0.82700
H908        H  0.20170991  0.68707302  0.45443126     0.13100
C909        C  0.20158023  0.64560251  0.40607140     0.02400
N910        N  0.24332620  0.68093820  0.34725363    -0.81200
H911        H  0.27684443  0.74456286  0.35624858     0.17900
C912        C  0.18130408  0.62725696  0.37829725    -0.26100
C913        C  0.16602036  0.59318298  0.37776835     0.36000
C914        C  0.17058938  0.57692464  0.40597500    -0.20100
C915        C  0.19002059  0.59539971  0.43418389    -0.25400
C916        C  0.20594020  0.62929032  0.43423944     0.27300
H917        H  0.17774772  0.63964547  0.35668487     0.13100
N918        N  0.14611264  0.57521293  0.34865989    -0.82600
H919        H  0.19415062  0.58342150  0.45579762     0.17900
N920        N  0.22759154  0.64727113  0.46225753    -0.81200
H921        H  0.14561099  0.59076299  0.32993844     0.33600
H922        H  0.12246863  0.56105726  0.35802544     0.38100
H923        H  0.22815038  0.63175635  0.48097778     0.33500
H924        H  0.25088899  0.66030737  0.45163853     0.30200
H925        H  0.25971054  0.69672209  0.32860716     0.33500
H926        H  0.25277181  0.66695591  0.35641822     0.30200
H927        H  0.25705320  0.75897849  0.47909641     0.38100
H928        H  0.21693658  0.73547727  0.48078688     0.33600
C929        C  0.26850699  0.87999029  0.50250778    -0.20200
C930        C  0.27622394  0.87987135  0.53820833     0.36000
C931        C  0.26219705  0.89013837  0.56411138    -0.26200
C932        C  0.23955981  0.89942692  0.55562538     0.02500
C933        C  0.22995687  0.89703858  0.52023098     0.27300
C934        C  0.24493027  0.88804355  0.49416057    -0.25300
N935        N  0.29973369  0.87124640  0.54797372    -0.82700
H936        H  0.26995953  0.89203567  0.59101919     0.13100
C937        C  0.22812391  0.91382961  0.58345659     0.02400
N938        N  0.20527713  0.90413738  0.51078153    -0.81200
H939        H  0.23850904  0.88782513  0.46696021     0.17900
C940        C  0.23002516  0.94356923  0.57708346    -0.26100
C941        C  0.22166144  0.95916230  0.60296332     0.36000
C942        C  0.21173354  0.94522957  0.63657393    -0.20100
C943        C  0.20986463  0.91557994  0.64316185    -0.25400
C944        C  0.21729487  0.89946152  0.61686948     0.27300
H945        H  0.23900867  0.95524754  0.55198244     0.13100
N946        N  0.22512541  0.99010849  0.59583134    -0.82600
H947        H  0.20246794  0.90490798  0.66895907     0.17900
N948        N  0.21386867  0.86855169  0.62402531    -0.81200
H949        H  0.23446994  0.99791998  0.57064044     0.33600
H950        H  0.20202307  0.98717850  0.59594119     0.38100
H951        H  0.20579684  0.86135741  0.64970895     0.33500
H952        H  0.19586883  0.85169596  0.60754413     0.30200
H953        H  0.20106968  0.90138289  0.48382197     0.33500
H954        H  0.18381724  0.88701210  0.52299616     0.30200
H955        H  0.28964169  0.84660217  0.54297430     0.38100
H956        H  0.30400243  0.87415842  0.57492395     0.33600
C957        C  0.18232479  0.91454475  0.80016005    -0.20200
C958        C  0.20690822  0.90899894  0.81186313     0.36000
C959        C  0.19897457  0.87765834  0.82084776    -0.26200
C960        C  0.16711386  0.85215832  0.81846837     0.02500
C961        C  0.14240341  0.85759942  0.80734484     0.27300
C962        C  0.15027817  0.88895386  0.79832959    -0.25300
N963        N  0.23964402  0.93523508  0.81494528    -0.82700
H964        H  0.21752938  0.87307604  0.83027534     0.13100
C965        C  0.15967179  0.82051189  0.83124104     0.02400
N966        N  0.10952459  0.83140286  0.80576570    -0.81200
H967        H  0.13154751  0.89330441  0.78896255     0.17900
C968        C  0.15339302  0.81425521  0.86696492    -0.26100
C969        C  0.14704750  0.78484494  0.88101227     0.36000
C970        C  0.14581515  0.76091286  0.85839993    -0.20100
C971        C  0.15340706  0.76774896  0.82273988    -0.25400
C972        C  0.16053290  0.79763458  0.80888922     0.27300
H973        H  0.15389180  0.83262666  0.88394605     0.13100
N974        N  0.14234993  0.77934769  0.91816453    -0.82600
H975        H  0.15302233  0.74954077  0.80560291     0.17900
N976        N  0.16897619  0.80504003  0.77254221    -0.81200
H977        H  0.14401820  0.79941607  0.93092496     0.33600
H978        H  0.16132417  0.77675105  0.92755884     0.38100
H979        H  0.16910029  0.78575260  0.75989725     0.33500
H980        H  0.15094197  0.80772147  0.76068423     0.30200
H981        H  0.09426057  0.83969100  0.79750481     0.33500
H982        H  0.10833319  0.81526028  0.78663366     0.30200
H983        H  0.23990480  0.95095616  0.83409151     0.38100
H984        H  0.25468758  0.92692981  0.82392013     0.33600
C985        C  0.14193272  0.06429322  0.73967397    -0.20200
C986        C  0.11141555  0.05462506  0.72484093     0.36000
C987        C  0.10010108  0.07647932  0.72355169    -0.26200
C988        C  0.11843582  0.10795226  0.73673444     0.02500
C989        C  0.14905232  0.11780293  0.75137379     0.27300
C990        C  0.16031114  0.09573944  0.75311964    -0.25300
N991        N  0.09165077  0.02231451  0.71176510    -0.82700
H992        H  0.07640202  0.06867261  0.71285226     0.13100
C993        C  0.10382791  0.12907807  0.73694543     0.02400
N994        N  0.16871839  0.15025559  0.76394820    -0.81200
H995        H  0.18377506  0.10331525  0.76428261     0.17900
C996        C  0.09787101  0.13944192  0.76902083    -0.26100
C997        C  0.07907677  0.15437336  0.77101947     0.36000
C998        C  0.06502477  0.15837049  0.74017352    -0.20100
C999        C  0.07339808  0.15042345  0.70777036    -0.25400
C1000       C  0.09271136  0.13600423  0.70586707     0.27300
H1001       H  0.10684236  0.13465227  0.79286033     0.13100
N1002       N  0.07370880  0.16477505  0.80446077    -0.82600
H1003       H  0.06372421  0.15415107  0.68385046     0.17900
N1004       N  0.10043114  0.12756714  0.67251662    -0.81200
H1005       H  0.08514305  0.15950882  0.82440072     0.33600
H1006       H  0.08470920  0.18990703  0.80362901     0.38100
H1007       H  0.09049610  0.13419831  0.65217172     0.33500
H1008       H  0.12551564  0.14117961  0.66936144     0.30200
H1009       H  0.19058778  0.15376868  0.77364604     0.33500
H1010       H  0.17448097  0.16570205  0.74247229     0.30200
H1011       H  0.07000613  0.01904519  0.70164143     0.38100
H1012       H  0.08542680  0.00654161  0.73300304     0.33600
C1013       C  0.52512577  0.94970891  0.98692153    -0.20200
C1014       C  0.53287212  0.97507872  0.96309030     0.36000
C1015       C  0.52262244  0.99697230  0.96995009    -0.26200
C1016       C  0.50433391  0.99379700  0.99981319     0.02500
C1017       C  0.49666931  0.96885545  0.02397679     0.27300
C1018       C  0.50710766  0.94684234  0.01722686    -0.25300
N1019       N  0.54962528  0.97774912  0.93092141    -0.82700
H1020       H  0.52811399  0.01602883  0.95126105     0.13100
C1021       C  0.49257727  0.01638503  0.00439597     0.02400
N1022       N  0.47811077  0.96589559  0.05489374    -0.81200
H1023       H  0.50089420  0.92724992  0.03537412     0.17900
C1024       C  0.45955474  0.00510361  0.00045408    -0.26100
C1025       C  0.44770879  0.02632775  0.00313711     0.36000
C1026       C  0.46949693  0.05923214  0.00976398    -0.20100
C1027       C  0.50267094  0.07057266  0.01263873    -0.25400
C1028       C  0.51441636  0.04930958  0.01040522     0.27300
H1029       H  0.44312518  0.97975467  0.99517265     0.13100
N1030       N  0.41377380  0.01471676  0.99940407    -0.82600
H1031       H  0.51923477  0.09577357  0.01855563     0.17900
N1032       N  0.54825174  0.06075630  0.01491691    -0.81200
H1033       H  0.41093415  0.02571319  0.97720585     0.33600
H1034       H  0.40109333  0.98988804  0.99465604     0.38100
H1035       H  0.56103541  0.08566250  0.01922158     0.33500
H1036       H  0.55068145  0.05007912  0.03762140     0.30200
H1037       H  0.47443304  0.94614072  0.06987243     0.33500
H1038       H  0.49182651  0.98643750  0.07021821     0.30200
H1039       H  0.53483028  0.97621186  0.91013777     0.38100
H1040       H  0.57050784  0.00053969  0.93012905     0.33600
C1041       C  0.38365498  0.11529677  0.96923303    -0.20200
C1042       C  0.39136122  0.11299127  0.93397304     0.36000
C1043       C  0.36736016  0.10320488  0.90803733    -0.26200
C1044       C  0.33596431  0.09676330  0.91608136     0.02500
C1045       C  0.32884413  0.10069153  0.95120970     0.27300
C1046       C  0.35245655  0.10915108  0.97737599    -0.25300
N1047       N  0.42292031  0.11862733  0.92488767    -0.82700
H1048       H  0.37299020  0.09962672  0.88148627     0.13100
C1049       C  0.31050545  0.08393820  0.88797423     0.02400
N1050       N  0.29761392  0.09592972  0.96028493    -0.81200
H1051       H  0.34644574  0.11083050  0.00441691     0.17900
C1052       C  0.28023916  0.05638819  0.89468974    -0.26100
C1053       C  0.25643269  0.04216728  0.86853961     0.36000
C1054       C  0.26346250  0.05457200  0.83401693    -0.20100
C1055       C  0.29348192  0.08234385  0.82726697    -0.25400
C1056       C  0.31662468  0.09765334  0.85400755     0.27300
H1057       H  0.27534385  0.04528158  0.92032791     0.13100
N1058       N  0.22579121  0.01405453  0.87658617    -0.82600
H1059       H  0.29887384  0.09214944  0.80096544     0.17900
N1060       N  0.34634925  0.12705117  0.84673457    -0.81200
H1061       H  0.22526845  0.00681265  0.90247717     0.33600
H1062       H  0.20821173  0.02072256  0.87504392     0.38100
H1063       H  0.34713132  0.13398310  0.82066951     0.33500
H1064       H  0.34665874  0.14519964  0.86221740     0.30200
H1065       H  0.29619818  0.09955064  0.98710223     0.33500
H1066       H  0.29504836  0.11361135  0.94731428     0.30200
H1067       H  0.43934562  0.14318491  0.92866271     0.38100
H1068       H  0.42411648  0.11416121  0.89827461     0.33600
C1069       C  0.43560881  0.05630293  0.16544026    -0.20200
C1070       C  0.40774354  0.02491709  0.16532235     0.36000
C1071       C  0.40166173  0.00356716  0.19323212    -0.26200
C1072       C  0.42278487  0.01213031  0.22155857     0.02500
C1073       C  0.45179618  0.04234041  0.22093093     0.27300
C1074       C  0.45771787  0.06420790  0.19314776    -0.25300
N1075       N  0.38488802  0.01453330  0.13731894    -0.82700
H1076       H  0.37958240  0.98027006  0.19324301     0.13100
C1077       C  0.41210959  0.99007287  0.25259114     0.02400
N1078       N  0.47549511  0.05038236  0.24786646    -0.81200
H1079       H  0.47956025  0.08765307  0.19339775     0.17900
C1080       C  0.41306634  0.96131170  0.25157352    -0.26100
C1081       C  0.39833454  0.93756753  0.27813852     0.36000
C1082       C  0.38187908  0.94250128  0.30631066    -0.20100
C1083       C  0.38197261  0.97189721  0.30746550    -0.25400
C1084       C  0.39637821  0.99531341  0.28094312     0.27300
H1085       H  0.42463345  0.95701831  0.22943718     0.13100
N1086       N  0.39960968  0.90838723  0.27611431    -0.82600
H1087       H  0.36945429  0.97625698  0.32853775     0.17900
N1088       N  0.39300893  0.02339455  0.28146074    -0.81200
H1089       H  0.41197952  0.90826491  0.25350629     0.33600
H1090       H  0.41319063  0.90830204  0.29735216     0.38100
H1091       H  0.37922381  0.02283558  0.30305146     0.33500
H1092       H  0.41587881  0.04365959  0.28480435     0.30200
H1093       H  0.49574284  0.07313051  0.24318468     0.33500
H1094       H  0.46568590  0.05201884  0.27168501     0.30200
H1095       H  0.36233862  0.00842187  0.14788197     0.38100
H1096       H  0.38308073  0.99376425  0.12624305     0.33600
C1097       C  0.57062219  0.18111624  0.07284427    -0.20200
C1098       C  0.59198473  0.20994570  0.05473467     0.36000
C1099       C  0.62513484  0.22140599  0.05477140    -0.26200
C1100       C  0.63798395  0.20484583  0.07221761     0.02500
C1101       C  0.61689197  0.17609919  0.09040194     0.27300
C1102       C  0.58339195  0.16466686  0.09079657    -0.25300
N1103       N  0.58097596  0.22896982  0.03733271    -0.82700
H1104       H  0.64116753  0.24392466  0.04152530     0.13100
C1105       C  0.67376492  0.21954124  0.07276262     0.02400
N1106       N  0.62954542  0.15860447  0.10816853    -0.81200
H1107       H  0.56714494  0.14260899  0.10465811     0.17900
C1108       C  0.68991282  0.22777028  0.10492498    -0.26100
C1109       C  0.72373401  0.24686908  0.10645884     0.36000
C1110       C  0.74207825  0.25883859  0.07519331    -0.20100
C1111       C  0.72592163  0.24835640  0.04295267    -0.25400
C1112       C  0.69206145  0.22865130  0.04145181     0.27300
H1113       H  0.67612938  0.22053308  0.12913541     0.13100
N1114       N  0.73914004  0.25437985  0.13996501    -0.82600
H1115       H  0.73954383  0.25650107  0.01871343     0.17900
N1116       N  0.67603150  0.21848013  0.00822883    -0.81200
H1117       H  0.73308959  0.23268585  0.15243909     0.33600
H1118       H  0.72979426  0.26605801  0.15493222     0.38100
H1119       H  0.69283353  0.22723721  0.98770205     0.33500
H1120       H  0.66460816  0.19331235  0.00726449     0.30200
H1121       H  0.61090912  0.13804962  0.12027917     0.33500
H1122       H  0.63961009  0.15051721  0.08919414     0.30200
H1123       H  0.56777505  0.23433397  0.05508737     0.38100
H1124       H  0.56609314  0.21573954  0.01639191     0.33600
C1125       C  0.27593120  0.19725599  0.19162675    -0.20200
C1126       C  0.29895093  0.19675273  0.21405240     0.36000
C1127       C  0.31980709  0.18710834  0.20068019    -0.26200
C1128       C  0.31791543  0.17786026  0.16565879     0.02500
C1129       C  0.29544806  0.17884386  0.14299116     0.27300
C1130       C  0.27430753  0.18835687  0.15634998    -0.25300
N1131       N  0.30026794  0.20486256  0.25056018    -0.82700
H1132       H  0.33712788  0.18597168  0.21781200     0.13100
C1133       C  0.33939770  0.16648460  0.15368964     0.02400
N1134       N  0.29425976  0.17012635  0.10674018    -0.81200
H1135       H  0.25658475  0.18885547  0.13933244     0.17900
C1136       C  0.32606536  0.13418396  0.14376915    -0.26100
C1137       C  0.34604489  0.12204920  0.13408305     0.36000
C1138       C  0.37991167  0.14294243  0.13436594    -0.20100
C1139       C  0.39301908  0.17506590  0.14528523    -0.25400
C1140       C  0.37303321  0.18715410  0.15460344     0.27300
H1141       H  0.30005375  0.11840976  0.14403297     0.13100
N1142       N  0.33213709  0.08874086  0.12420086    -0.82600
H1143       H  0.41893134  0.19115970  0.14532350     0.17900
N1144       N  0.38658780  0.22037731  0.16465823    -0.81200
H1145       H  0.30691601  0.07692247  0.12518770     0.33600
H1146       H  0.33917514  0.07764993  0.14284731     0.38100
H1147       H  0.41181026  0.23223426  0.16462898     0.33500
H1148       H  0.38004733  0.23158463  0.14564267     0.30200
H1149       H  0.27632238  0.17218202  0.09366652     0.33500
H1150       H  0.31628587  0.18685313  0.09520435     0.30200
H1151       H  0.27870039  0.18743132  0.26228926     0.38100
H1152       H  0.31888991  0.20361008  0.26315265     0.33600
C1153       C  0.18369437  0.27137103  0.32701826    -0.20200
C1154       C  0.15054107  0.26145050  0.32868001     0.36000
C1155       C  0.14155515  0.28426754  0.33680129    -0.26200
C1156       C  0.16502009  0.31656331  0.34262902     0.02500
C1157       C  0.19802046  0.32628428  0.34222296     0.27300
C1158       C  0.20706122  0.30347718  0.33449554    -0.25300
N1159       N  0.12626747  0.22881217  0.32038119    -0.82700
H1160       H  0.11622264  0.27714920  0.33754662     0.13100
C1161       C  0.15465023  0.34010963  0.34870290     0.02400
N1162       N  0.22211275  0.35938722  0.34872681    -0.81200
H1163       H  0.23247702  0.31098848  0.33304830     0.17900
C1164       C  0.15964029  0.35441532  0.38171948    -0.26100
C1165       C  0.14933077  0.37627775  0.38897824     0.36000
C1166       C  0.13416568  0.38410412  0.36237714    -0.20100
C1167       C  0.12989186  0.37046978  0.32901899    -0.25400
C1168       C  0.13992720  0.34822460  0.32192391     0.27300
H1169       H  0.17119972  0.34810195  0.40195983     0.13100
N1170       N  0.15487473  0.39116178  0.42296047    -0.82600
H1171       H  0.11831322  0.37679817  0.30882783     0.17900
N1172       N  0.13527613  0.33379896  0.28782132    -0.81200
H1173       H  0.16839221  0.38449079  0.43851389     0.33600
H1174       H  0.13248516  0.38194528  0.43543578     0.38100
H1175       H  0.12390178  0.34220435  0.27122237     0.33500
H1176       H  0.15811621  0.34145893  0.27704555     0.30200
H1177       H  0.24528030  0.36247092  0.34754312     0.33500
H1178       H  0.22080266  0.37328674  0.32851434     0.30200
H1179       H  0.12876011  0.22506659  0.29382631     0.38100
H1180       H  0.10312723  0.22552640  0.32343163     0.33600
C1181       C  0.06227741  0.91470128  0.25355441    -0.20200
C1182       C  0.05726712  0.93491304  0.27665029     0.36000
C1183       C  0.07772616  0.96846803  0.27520129    -0.26200
C1184       C  0.10348826  0.98269076  0.25140064     0.02500
C1185       C  0.10955271  0.96282043  0.22911487     0.27300
C1186       C  0.08860347  0.92902290  0.23008822    -0.25300
N1187       N  0.03080883  0.92167049  0.30101091    -0.82700
H1188       H  0.07310249  0.98364631  0.29247907     0.13100
C1189       C  0.12279006  0.01849741  0.24983981     0.02400
N1190       N  0.13738828  0.97686670  0.20642773    -0.81200
H1191       H  0.09296694  0.91380672  0.21262083     0.17900
C1192       C  0.14585934  0.03556833  0.27579387    -0.26100
C1193       C  0.16087717  0.06944593  0.27871144     0.36000
C1194       C  0.15331901  0.08678641  0.25433791    -0.20100
C1195       C  0.13079656  0.06940081  0.22774793    -0.25400
C1196       C  0.11499251  0.03556765  0.22573912     0.27300
H1197       H  0.15111517  0.02219448  0.29480085     0.13100
N1198       N  0.18341674  0.08597718  0.30649967    -0.82600
H1199       H  0.12419099  0.08211576  0.20929299     0.17900
N1200       N  0.08948286  0.01837191  0.20083410    -0.81200
H1201       H  0.18811630  0.07003366  0.32018725     0.33600
H1202       H  0.17214629  0.09362612  0.32448119     0.38100
H1203       H  0.08564096  0.03439098  0.18610851     0.33500
H1204       H  0.09690899  0.00676915  0.18314073     0.30200
H1205       H  0.13881877  0.95886961  0.19245688     0.33500
H1206       H  0.13449427  0.99107524  0.18789058     0.30200
H1207       H  0.04020918  0.92869916  0.32623442     0.38100
H1208       H  0.01639134  0.93171706  0.29583431     0.33600
C1209       C  0.91212968  0.07166913  0.26538074    -0.20200
C1210       C  0.93008099  0.06266753  0.24328620     0.36000
C1211       C  0.96381300  0.08124072  0.24237276    -0.26200
C1212       C  0.98048845  0.10859151  0.26339857     0.02500
C1213       C  0.96304038  0.11785058  0.28576287     0.27300
C1214       C  0.92888760  0.09924588  0.28655978    -0.25300
N1215       N  0.91423575  0.03374610  0.22274368    -0.82700
H1216       H  0.97719574  0.07372309  0.22572085     0.13100
C1217       C  0.01628372  0.12529376  0.26327134     0.02400
N1218       N  0.98004385  0.14596300  0.30749795    -0.81200
H1219       H  0.91538050  0.10620168  0.30370805     0.17900
C1220       C  0.03416582  0.15028530  0.23933775    -0.26100
C1221       C  0.06786421  0.16367539  0.23549415     0.36000
C1222       C  0.08400999  0.15225174  0.25679003    -0.20100
C1223       C  0.06576159  0.12727261  0.28082194    -0.25400
C1224       C  0.03216783  0.11348028  0.28394854     0.27300
H1225       H  0.02159613  0.15865882  0.22288217     0.13100
N1226       N  0.08552992  0.18888181  0.21036595    -0.82600
H1227       H  0.07767350  0.11783523  0.29678831     0.17900
N1228       N  0.01386849  0.08671463  0.30719062    -0.81200
H1229       H  0.07038103  0.19585303  0.19868729     0.33600
H1230       H  0.09289400  0.17918350  0.19024399     0.38100
H1231       H  0.02902023  0.08029940  0.31991328     0.33500
H1232       H  0.00375330  0.09428423  0.32664461     0.30200
H1233       H  0.96372257  0.14964100  0.32217450     0.33500
H1234       H  0.99367881  0.14151198  0.32544447     0.30200
H1235       H  0.92049780  0.03994993  0.19646985     0.38100
H1236       H  0.92297548  0.01871243  0.23036691     0.33600
C1237       C  0.26302033  0.08765046  0.67777637    -0.20200
C1238       C  0.26182569  0.11069709  0.69960805     0.36000
C1239       C  0.28520536  0.14313181  0.69560595    -0.26200
C1240       C  0.30963414  0.15261810  0.67045494     0.02500
C1241       C  0.31064070  0.12958643  0.64828858     0.27300
C1242       C  0.28727826  0.09694500  0.65246300    -0.25300
N1243       N  0.23745403  0.10085471  0.72647139    -0.82700
H1244       H  0.28488407  0.16106329  0.71263267     0.13100
C1245       C  0.33405118  0.18691501  0.66787253     0.02400
N1246       N  0.33541602  0.13949458  0.62195036    -0.81200
H1247       H  0.28810251  0.07876113  0.63635782     0.17900
C1248       C  0.36643928  0.19671860  0.67405985    -0.26100
C1249       C  0.39068429  0.22892012  0.66926252     0.36000
C1250       C  0.38192216  0.25169913  0.65913574    -0.20100
C1251       C  0.34909569  0.24196837  0.65552176    -0.25400
C1252       C  0.32508251  0.20966055  0.65916429     0.27300
H1253       H  0.37284857  0.17889941  0.68129211     0.13100
N1254       N  0.42402962  0.23798543  0.67249758    -0.82600
H1255       H  0.34222005  0.25937028  0.64799985     0.17900
N1256       N  0.29177331  0.19963512  0.65289068    -0.81200
H1257       H  0.42609736  0.21845133  0.68097010     0.33600
H1258       H  0.43401779  0.24360141  0.64732544     0.38100
H1259       H  0.28930911  0.21943138  0.64673711     0.33500
H1260       H  0.28434806  0.18467409  0.63080330     0.30200
H1261       H  0.33273174  0.11951432  0.60804390     0.33500
H1262       H  0.33214821  0.15392847  0.60395741     0.30200
H1263       H  0.24138805  0.08706772  0.74473503     0.38100
H1264       H  0.23994898  0.12092100  0.74003725     0.33600
C1265       C  0.38413607  0.27874702  0.49992245    -0.20200
C1266       C  0.35122197  0.27055377  0.50252169     0.36000
C1267       C  0.33006485  0.25523803  0.47426993    -0.26200
C1268       C  0.34035703  0.24714996  0.44345522     0.02500
C1269       C  0.37242860  0.25332533  0.44155829     0.27300
C1270       C  0.39390946  0.26905193  0.46962953    -0.25300
N1271       N  0.33931455  0.27838658  0.53345607    -0.82700
H1272       H  0.30551817  0.25057918  0.47583447     0.13100
C1273       C  0.31831115  0.23563351  0.41233392     0.02400
N1274       N  0.38322044  0.24410049  0.41079831    -0.81200
H1275       H  0.41869947  0.27459039  0.46730056     0.17900
C1276       C  0.32848556  0.25388792  0.38150129    -0.26100
C1277       C  0.30765219  0.24684759  0.35279308     0.36000
C1278       C  0.27511698  0.22082638  0.35478787    -0.20100
C1279       C  0.26537582  0.20171003  0.38533775    -0.25400
C1280       C  0.28657288  0.20877501  0.41395733     0.27300
H1281       H  0.35272846  0.27460500  0.38023183     0.13100
N1282       N  0.31947154  0.26683163  0.32207198    -0.82600
H1283       H  0.24082288  0.18166515  0.38738933     0.17900
N1284       N  0.27584482  0.18905180  0.44489107    -0.81200
H1285       H  0.34321933  0.28567891  0.32558787     0.33600
H1286       H  0.32025303  0.25261851  0.30175632     0.38100
H1287       H  0.25193163  0.17035388  0.44210817     0.33500
H1288       H  0.28991192  0.17822042  0.44733789     0.30200
H1289       H  0.40739624  0.25039254  0.41332380     0.33500
H1290       H  0.36974896  0.21894948  0.40902279     0.30200
H1291       H  0.33994761  0.26436341  0.55394876     0.38100
H1292       H  0.31509973  0.27186412  0.53054228     0.33600
C1293       C  0.57510884  0.40686369  0.59775303    -0.20200
C1294       C  0.59510598  0.41170545  0.62703336     0.36000
C1295       C  0.62892900  0.43122640  0.62361427    -0.26200
C1296       C  0.64351831  0.44604931  0.59169207     0.02500
C1297       C  0.62359548  0.44241758  0.56293769     0.27300
C1298       C  0.58981402  0.42282495  0.56620490    -0.25300
N1299       N  0.58133370  0.39577221  0.65974618    -0.82700
H1300       H  0.64412461  0.43362857  0.64562557     0.13100
C1301       C  0.67954070  0.46296167  0.58807091     0.02400
N1302       N  0.63779282  0.45836243  0.53034783    -0.81200
H1303       H  0.57490402  0.41959976  0.54364176     0.17900
C1304       C  0.69321728  0.45351579  0.56124871    -0.26100
C1305       C  0.72687807  0.46700303  0.55815755     0.36000
C1306       C  0.74748907  0.48984526  0.58311369    -0.20100
C1307       C  0.73391990  0.49957444  0.60976943    -0.25400
C1308       C  0.70026673  0.48684159  0.61212873     0.27300
H1309       H  0.67745424  0.43485216  0.54307272     0.13100
N1310       N  0.73998177  0.45616808  0.53093416    -0.82600
H1311       H  0.74969171  0.51715302  0.62888949     0.17900
N1312       N  0.68705016  0.49794068  0.63894498    -0.81200
H1313       H  0.72146348  0.43766026  0.51636918     0.33600
H1314       H  0.75269539  0.47538075  0.51359014     0.38100
H1315       H  0.70545926  0.51547609  0.65450680     0.33500
H1316       H  0.67606209  0.50922704  0.62650838     0.30200
H1317       H  0.61991134  0.45307659  0.51169867     0.33500
H1318       H  0.64940127  0.48320239  0.53487039     0.30200
H1319       H  0.57188591  0.37106025  0.65584076     0.38100
H1320       H  0.59921498  0.40285859  0.67882268     0.33600
C1321       C  0.59144155  0.18379815  0.60754707    -0.20200
C1322       C  0.59084013  0.20297232  0.63528715     0.36000
C1323       C  0.57168830  0.21736356  0.63259390    -0.26200
C1324       C  0.55281876  0.21282109  0.60272398     0.02500
C1325       C  0.55237987  0.19254375  0.57564009     0.27300
C1326       C  0.57186627  0.17855681  0.57819733    -0.25300
N1327       N  0.61080030  0.20923631  0.66542152    -0.82700
H1328       H  0.57246961  0.23310327  0.65343740     0.13100
C1329       C  0.53525534  0.23090530  0.59917266     0.02400
N1330       N  0.53230227  0.18643215  0.54548042    -0.81200
H1331       H  0.57199731  0.16364062  0.55691736     0.17900
C1332       C  0.54102748  0.25049048  0.56963325    -0.26100
C1333       C  0.52673699  0.26968289  0.56622267     0.36000
C1334       C  0.50629302  0.26954885  0.59318566    -0.20100
C1335       C  0.50022180  0.24955566  0.62246502    -0.25400
C1336       C  0.51396207  0.22986084  0.62544507     0.27300
H1337       H  0.55768660  0.25164196  0.54961988     0.13100
N1338       N  0.53415617  0.29032873  0.53623185    -0.82600
H1339       H  0.48498950  0.24955158  0.64343557     0.17900
N1340       N  0.50645739  0.20887400  0.65511552    -0.81200
H1341       H  0.54906373  0.28708281  0.51864456     0.33600
H1342       H  0.54747270  0.31418816  0.54499096     0.38100
H1343       H  0.49039680  0.21094135  0.67207138     0.33500
H1344       H  0.49441086  0.18516192  0.64579362     0.30200
H1345       H  0.53490536  0.17120410  0.52783541     0.33500
H1346       H  0.50827049  0.17404213  0.55403754     0.30200
H1347       H  0.62631659  0.23418490  0.66741868     0.38100
H1348       H  0.59586421  0.20157312  0.68757775     0.33600
C1349       C  0.38218910  0.45313592  0.83165122    -0.20200
C1350       C  0.38773116  0.46721753  0.79791572     0.36000
C1351       C  0.40393292  0.45935803  0.77219185    -0.26200
C1352       C  0.41337108  0.43645852  0.77846523     0.02500
C1353       C  0.40915344  0.42350863  0.81255358     0.27300
C1354       C  0.39419907  0.43235130  0.83867484    -0.25300
N1355       N  0.37575006  0.48830386  0.78917208    -0.82700
H1356       H  0.40775635  0.46996777  0.74635715     0.13100
C1357       C  0.42434702  0.42384306  0.74844877     0.02400
N1358       N  0.41882130  0.40036743  0.82028731    -0.81200
H1359       H  0.39063470  0.42166127  0.86443698     0.17900
C1360       C  0.45240131  0.42156465  0.75108650    -0.26100
C1361       C  0.46102096  0.40633400  0.72481466     0.36000
C1362       C  0.44184777  0.39414631  0.69426680    -0.20100
C1363       C  0.41487053  0.39822547  0.69106921    -0.25400
C1364       C  0.40558541  0.41211517  0.71777100     0.27300
H1365       H  0.46719633  0.43091582  0.77429073     0.13100
N1366       N  0.48880365  0.40290021  0.72954441    -0.82600
H1367       H  0.39982586  0.38928754  0.66801115     0.17900
N1368       N  0.37633537  0.41321149  0.71424459    -0.81200
H1369       H  0.50104246  0.41456009  0.75245192     0.33600
H1370       H  0.48043668  0.37838940  0.73337179     0.38100
H1371       H  0.36548776  0.40397297  0.69001685     0.33500
H1372       H  0.36007286  0.39806632  0.73336725     0.30200
H1373       H  0.41442356  0.39346333  0.84663789     0.33500
H1374       H  0.40432883  0.37965760  0.80555829     0.30200
H1375       H  0.35051602  0.47438088  0.78890363     0.38100
H1376       H  0.38278909  0.49734620  0.76378949     0.33600
C1377       C  0.21753085  0.27926139  0.16290771    -0.20200
C1378       C  0.24848267  0.30717915  0.15840864     0.36000
C1379       C  0.25348361  0.32939542  0.13186577    -0.26200
C1380       C  0.22869645  0.32458227  0.10904658     0.02500
C1381       C  0.19787312  0.29672989  0.11310126     0.27300
C1382       C  0.19263636  0.27429729  0.13987014    -0.25300
N1383       N  0.27522595  0.31246088  0.17994862    -0.82700
H1384       H  0.27737502  0.35024582  0.12815989     0.13100
C1385       C  0.23667588  0.34813198  0.07983478     0.02400
N1386       N  0.17204006  0.29139858  0.09011186    -0.81200
H1387       H  0.16899449  0.25295567  0.14285866     0.17900
C1388       C  0.23259902  0.33732487  0.04503208    -0.26100
C1389       C  0.24523145  0.35923401  0.01687126     0.36000
C1390       C  0.26284686  0.39286471  0.02363026    -0.20100
C1391       C  0.26475000  0.40358774  0.05831054    -0.25400
C1392       C  0.25187220  0.38162691  0.08640308     0.27300
H1393       H  0.22085557  0.31166561  0.03987351     0.13100
N1394       N  0.24095634  0.34738269  0.98151247    -0.82600
H1395       H  0.27785339  0.42922859  0.06379139     0.17900
N1396       N  0.25512741  0.39320258  0.12177368    -0.81200
H1397       H  0.22778231  0.32216909  0.98109034     0.33600
H1398       H  0.22702674  0.35512239  0.96841990     0.38100
H1399       H  0.26716140  0.41841218  0.12226580     0.33500
H1400       H  0.23188843  0.38503205  0.13163031     0.30200
H1401       H  0.15096178  0.26984699  0.09644156     0.33500
H1402       H  0.16710541  0.30997094  0.09443983     0.30200
H1403       H  0.28050719  0.29437569  0.17398885     0.38100
H1404       H  0.29597135  0.33438434  0.17377870     0.33600
C1405       C  0.07744024  0.27535669  0.81170171    -0.20200
C1406       C  0.08400597  0.30427328  0.82816654     0.36000
C1407       C  0.11609451  0.32727353  0.83609120    -0.26200
C1408       C  0.14139287  0.32205571  0.82665604     0.02500
C1409       C  0.13469857  0.29345864  0.80919403     0.27300
C1410       C  0.10263115  0.27001944  0.80263638    -0.25300
N1411       N  0.05813865  0.31003332  0.83667609    -0.82700
H1412       H  0.12142854  0.34921021  0.84975794     0.13100
C1413       C  0.17471625  0.34583915  0.83672434     0.02400
N1414       N  0.16057292  0.28870738  0.79764735    -0.81200
H1415       H  0.09731261  0.24809127  0.78892727     0.17900
C1416       C  0.19175365  0.33531666  0.85694564    -0.26100
C1417       C  0.22344314  0.35659339  0.86734307     0.36000
C1418       C  0.23795282  0.38979552  0.85876523    -0.20100
C1419       C  0.22091313  0.40013577  0.83781151    -0.25400
C1420       C  0.18948634  0.37835412  0.82639812     0.27300
H1421       H  0.18015695  0.31019226  0.86465689     0.13100
N1422       N  0.24063159  0.34444622  0.88676270    -0.82600
H1423       H  0.23182186  0.42535044  0.83080822     0.17900
N1424       N  0.17245468  0.38905855  0.80456288    -0.81200
H1425       H  0.22596581  0.31976529  0.89174719     0.33600
H1426       H  0.25960318  0.34696935  0.87088202     0.38100
H1427       H  0.18670255  0.41374656  0.79945718     0.33500
H1428       H  0.16844581  0.37726344  0.78044847     0.30200
H1429       H  0.15146639  0.26641344  0.78510907     0.33500
H1430       H  0.17395882  0.30637304  0.77888069     0.30200
H1431       H  0.04330845  0.29280859  0.85519169     0.38100
H1432       H  0.06716844  0.33260342  0.84855764     0.33600
C1433       C  0.48235942  0.75516088  0.94115442    -0.20200
C1434       C  0.46154340  0.73579455  0.96835202     0.36000
C1435       C  0.44524567  0.70195161  0.96513755    -0.26200
C1436       C  0.44981137  0.68698776  0.93572734     0.02500
C1437       C  0.47198981  0.70635926  0.90951295     0.27300
C1438       C  0.48767685  0.74017203  0.91227639    -0.25300
N1439       N  0.45542327  0.75044394  0.99804111    -0.82700
H1440       H  0.42810937  0.68713487  0.98520944     0.13100
C1441       C  0.43003983  0.65116178  0.93200074     0.02400
N1442       N  0.47817255  0.69158544  0.87998755    -0.81200
H1443       H  0.50374426  0.75497738  0.89143468     0.17900
C1444       C  0.41063814  0.63771747  0.90221269    -0.26100
C1445       C  0.39002611  0.60411456  0.89869812     0.36000
C1446       C  0.38885038  0.58335730  0.92553826    -0.20100
C1447       C  0.40836284  0.59692771  0.95526650    -0.25400
C1448       C  0.42920216  0.63043967  0.95855434     0.27300
H1449       H  0.41082502  0.65363622  0.88208350     0.13100
N1450       N  0.36934862  0.59121813  0.86870216    -0.82600
H1451       H  0.40724030  0.58129507  0.97621818     0.17900
N1452       N  0.44952261  0.64353299  0.98878566    -0.81200
H1453       H  0.37334990  0.60966741  0.85134085     0.33600
H1454       H  0.34548658  0.58108844  0.87751335     0.38100
H1455       H  0.44599967  0.62511915  0.00593410     0.33500
H1456       H  0.47351574  0.65450454  0.98017110     0.30200
H1457       H  0.49502057  0.70916041  0.86301286     0.33500
H1458       H  0.48877255  0.67874822  0.88946883     0.30200
H1459       H  0.47669767  0.76219221  0.01263391     0.38100
H1460       H  0.43795445  0.73282889  0.01448484     0.33600
C1461       C  0.16640489  0.59610400  0.91443066    -0.20200
C1462       C  0.15364735  0.57019022  0.93844986     0.36000
C1463       C  0.16778303  0.55074462  0.94094296    -0.26200
C1464       C  0.19441330  0.55679316  0.91996877     0.02500
C1465       C  0.20646844  0.58206739  0.89522163     0.27300
C1466       C  0.19203944  0.60112846  0.89236983    -0.25300
N1467       N  0.12663227  0.56397059  0.96038104    -0.82700
H1468       H  0.15838192  0.53112790  0.95966576     0.13100
C1469       C  0.21059059  0.53761265  0.92486878     0.02400
N1470       N  0.23415178  0.58906325  0.87403925    -0.81200
H1471       H  0.20212160  0.62125373  0.87426558     0.17900
C1472       C  0.21210336  0.51961182  0.89672548    -0.26100
C1473       C  0.23084319  0.50474092  0.89855210     0.36000
C1474       C  0.24881737  0.50819998  0.92920731    -0.20100
C1475       C  0.24544090  0.52437223  0.95823949    -0.25400
C1476       C  0.22672405  0.53932885  0.95628710     0.27300
H1477       H  0.19925155  0.51792502  0.87284609     0.13100
N1478       N  0.23211137  0.48663880  0.86912732    -0.82600
H1479       H  0.25897347  0.52703959  0.98185361     0.17900
N1480       N  0.22518094  0.55742874  0.98554067    -0.81200
H1481       H  0.21783501  0.48673008  0.84861887     0.33600
H1482       H  0.22196865  0.46263643  0.87712518     0.38100
H1483       H  0.23829932  0.55628170  0.00667906     0.33500
H1484       H  0.23649614  0.58164741  0.97801571     0.30200
H1485       H  0.24003931  0.60840168  0.85721627     0.33500
H1486       H  0.25381815  0.59652191  0.89082512     0.30200
H1487       H  0.10690893  0.55769567  0.94404426     0.38100
H1488       H  0.12015202  0.54407799  0.97655414     0.33600
C1489       C  0.70885015  0.80606884  0.79617085    -0.20200
C1490       C  0.70591950  0.81042671  0.83217110     0.36000
C1491       C  0.68283164  0.81815364  0.84341414    -0.26200
C1492       C  0.66286597  0.82137725  0.81921444     0.02500
C1493       C  0.66523717  0.81631978  0.78329916     0.27300
C1494       C  0.68826614  0.80851978  0.77204935    -0.25300
N1495       N  0.72613679  0.80665914  0.85701495    -0.82700
H1496       H  0.68050603  0.82195396  0.87102433     0.13100
C1497       C  0.64040717  0.83131591  0.83196854     0.02400
N1498       N  0.64474608  0.81978059  0.75854342    -0.81200
H1499       H  0.69070550  0.80505050  0.74436092     0.17900
C1500       C  0.65051326  0.86419012  0.83213505    -0.26100
C1501       C  0.63067535  0.87499387  0.84628306     0.36000
C1502       C  0.60022421  0.85224110  0.86015683    -0.20100
C1503       C  0.58992015  0.81923232  0.85923435    -0.25400
C1504       C  0.60994633  0.80852628  0.84543268     0.27300
H1505       H  0.67411719  0.88139911  0.82166947     0.13100
N1506       N  0.64123369  0.90882365  0.84662448    -0.82600
H1507       H  0.56661163  0.80190095  0.87024966     0.17900
N1508       N  0.59995894  0.77483815  0.84580865    -0.81200
H1509       H  0.66431296  0.92225545  0.83557292     0.33600
H1510       H  0.62563912  0.91221926  0.83057822     0.38100
H1511       H  0.57707812  0.76133391  0.85727028     0.33500
H1512       H  0.59771403  0.76712477  0.81980071     0.30200
H1513       H  0.64993217  0.81565547  0.73305585     0.33500
H1514       H  0.62093441  0.80178624  0.76385055     0.30200
H1515       H  0.72039687  0.78257813  0.85599609     0.38100
H1516       H  0.72084804  0.81068431  0.88247347     0.33600
C1517       C  0.80764518  0.72727602  0.68030008    -0.20200
C1518       C  0.81117681  0.71844749  0.64615209     0.36000
C1519       C  0.82187948  0.69637591  0.64184413    -0.26200
C1520       C  0.82932169  0.68383013  0.67111268     0.02500
C1521       C  0.82673555  0.69351345  0.70510917     0.27300
C1522       C  0.81580845  0.71521046  0.70938004    -0.25300
N1523       N  0.80247384  0.73062669  0.61641447    -0.82700
H1524       H  0.82387269  0.68843626  0.61582295     0.13100
C1525       C  0.83742173  0.65862287  0.66610869     0.02400
N1526       N  0.83470508  0.68084058  0.73502242    -0.81200
H1527       H  0.81331101  0.72256974  0.73555260     0.17900
C1528       C  0.86968232  0.66656285  0.66824621    -0.26100
C1529       C  0.87812152  0.64299286  0.66250448     0.36000
C1530       C  0.85361247  0.61114865  0.65466475    -0.20100
C1531       C  0.82115042  0.60302103  0.65452364    -0.25400
C1532       C  0.81280876  0.62663932  0.66004979     0.27300
H1533       H  0.88822536  0.69124399  0.67373715     0.13100
N1534       N  0.91137963  0.65125988  0.66392107    -0.82600
H1535       H  0.80244742  0.57861370  0.64819130     0.17900
N1536       N  0.77962058  0.61860609  0.65861840    -0.81200
H1537       H  0.92630800  0.67573533  0.66978319     0.33600
H1538       H  0.91358947  0.63836779  0.68463522     0.38100
H1539       H  0.76453163  0.59405204  0.65334258     0.33500
H1540       H  0.77316399  0.62269475  0.68350130     0.30200
H1541       H  0.83171872  0.69075477  0.75817368     0.33500
H1542       H  0.81816228  0.65606467  0.73618091     0.30200
H1543       H  0.81863240  0.75546184  0.61505354     0.38100
H1544       H  0.80551547  0.72077229  0.59324085     0.33600
C1545       C  0.83073635  0.91376760  0.72518372    -0.20200
C1546       C  0.81845043  0.92774443  0.74864260     0.36000
C1547       C  0.83432714  0.96157144  0.75197050    -0.26200
C1548       C  0.86282667  0.98150653  0.73318709     0.02500
C1549       C  0.87524888  0.96746680  0.70991988     0.27300
C1550       C  0.85835705  0.93380681  0.70521915    -0.25300
N1551       N  0.79049478  0.90742317  0.76971847    -0.82700
H1552       H  0.82516038  0.97240974  0.77017702     0.13100
C1553       C  0.88092516  0.01679714  0.73996416     0.02400
N1554       N  0.90634891  0.98705896  0.69360669    -0.81200
H1555       H  0.86819284  0.92297600  0.68790893     0.17900
C1556       C  0.89960008  0.02862835  0.77043351    -0.26100
C1557       C  0.92029037  0.06204307  0.77577599     0.36000
C1558       C  0.92264465  0.08399934  0.74973448    -0.20100
C1559       C  0.90283374  0.07188036  0.71998590    -0.25400
C1560       C  0.88127564  0.03870721  0.71537920     0.27300
H1561       H  0.89881695  0.01163209  0.78953860     0.13100
N1562       N  0.93987226  0.07349300  0.80669774    -0.82600
H1563       H  0.90451226  0.08833632  0.69981781     0.17900
N1564       N  0.85916027  0.02734228  0.68640883    -0.81200
H1565       H  0.93486845  0.05426049  0.82335192     0.33600
H1566       H  0.96398432  0.08355757  0.79888597     0.38100
H1567       H  0.86184029  0.04673096  0.67144457     0.33500
H1568       H  0.86484236  0.01357227  0.66990822     0.30200
H1569       H  0.91290286  0.97272417  0.67911864     0.33500
H1570       H  0.90469459  0.00248214  0.67573213     0.30200
H1571       H  0.77098383  0.89468657  0.75279538     0.38100
H1572       H  0.78466393  0.92136469  0.78587231     0.33600
C1573       C  0.90442531  0.85343831  0.73889086    -0.20200
C1574       C  0.92447122  0.88122077  0.71870860     0.36000
C1575       C  0.95780196  0.89287040  0.71659716    -0.26200
C1576       C  0.97186051  0.87757916  0.73431308     0.02500
C1577       C  0.95195563  0.85017074  0.75516231     0.27300
C1578       C  0.91844494  0.83852662  0.75744740    -0.25300
N1579       N  0.91093289  0.89799318  0.70106228    -0.82700
H1580       H  0.97307693  0.91452137  0.70161773     0.13100
C1581       C  0.00771765  0.89220599  0.73259203     0.02400
N1582       N  0.96578002  0.83405372  0.77355167    -0.81200
H1583       H  0.90310297  0.81723818  0.77290794     0.17900
C1584       C  0.02527251  0.90056592  0.76383282    -0.26100
C1585       C  0.05912806  0.91789826  0.76365944     0.36000
C1586       C  0.07635683  0.92805341  0.73152649    -0.20100
C1587       C  0.05881876  0.91813793  0.70012329    -0.25400
C1588       C  0.02471900  0.90024007  0.70031997     0.27300
H1589       H  0.01263751  0.89463765  0.78875971     0.13100
N1590       N  0.07581630  0.92551931  0.79643512    -0.82600
H1591       H  0.07162969  0.92543625  0.67533458     0.17900
N1592       N  0.00726059  0.89075588  0.66788470    -0.81200
H1593       H  0.06888043  0.90391818  0.80958447     0.33600
H1594       H  0.06837424  0.93884092  0.81146875     0.38100
H1595       H  0.02322385  0.89865640  0.64656818     0.33500
H1596       H  0.99450001  0.86555192  0.66696904     0.30200
H1597       H  0.94800342  0.81444428  0.78772025     0.33500
H1598       H  0.97479117  0.82466864  0.75482002     0.30200
H1599       H  0.90227014  0.90721824  0.72037161     0.38100
H1600       H  0.92877409  0.91781817  0.68721234     0.33600
C1601       C  0.90781560  0.73240238  0.17725336    -0.20200
C1602       C  0.90352685  0.70562179  0.15771910     0.36000
C1603       C  0.87287819  0.68396341  0.14450921    -0.26200
C1604       C  0.84686753  0.68867111  0.15113315     0.02500
C1605       C  0.85125752  0.71573121  0.17008402     0.27300
C1606       C  0.88204601  0.73778054  0.18258238    -0.25300
N1607       N  0.93013576  0.70033497  0.15206533    -0.82700
H1608       H  0.86895461  0.66287701  0.12997326     0.13100
C1609       C  0.81457217  0.66370847  0.14044424     0.02400
N1610       N  0.82414237  0.71968562  0.17805633    -0.81200
H1611       H  0.88561118  0.75824353  0.19812150     0.17900
C1612       C  0.79627795  0.63820169  0.16349410    -0.26100
C1613       C  0.76483895  0.61413029  0.15487157     0.36000
C1614       C  0.75190316  0.61583212  0.12239616    -0.20100
C1615       C  0.77067238  0.64139952  0.09924058    -0.25400
C1616       C  0.80200928  0.66542352  0.10798483     0.27300
H1617       H  0.80651101  0.63737825  0.18842730     0.13100
N1618       N  0.74595417  0.58845470  0.17912267    -0.82600
H1619       H  0.76099590  0.64247072  0.07403593     0.17900
N1620       N  0.82131734  0.69115283  0.08391913    -0.81200
H1621       H  0.75933563  0.59069540  0.20153378     0.33600
H1622       H  0.72649930  0.59094609  0.18732766     0.38100
H1623       H  0.80856857  0.68844435  0.06082721     0.33500
H1624       H  0.82564246  0.71276137  0.09531010     0.30200
H1625       H  0.83140986  0.74036674  0.19323554     0.33500
H1626       H  0.81557489  0.72343609  0.15450394     0.30200
H1627       H  0.94743877  0.71951670  0.13702525     0.38100
H1628       H  0.92277765  0.67936076  0.13735121     0.33600
C1629       C  0.71401270  0.60515208  0.96459793    -0.20200
C1630       C  0.70592020  0.59833456  0.92884063     0.36000
C1631       C  0.72072405  0.62339617  0.90379558    -0.26200
C1632       C  0.74438098  0.65509095  0.91328119     0.02500
C1633       C  0.75403667  0.66119355  0.94877860     0.27300
C1634       C  0.73842690  0.63646816  0.97391202    -0.25300
N1635       N  0.68129847  0.56656812  0.91828673    -0.82700
H1636       H  0.71278524  0.61835214  0.87684557     0.13100
C1637       C  0.75702005  0.68183007  0.88639504     0.02400
N1638       N  0.77943859  0.69260567  0.95934608    -0.81200
H1639       H  0.74501921  0.64183792  0.00124091     0.17900
C1640       C  0.75789040  0.71092181  0.89436573    -0.26100
C1641       C  0.76713161  0.73557274  0.86919497     0.36000
C1642       C  0.77402498  0.73055348  0.83450926    -0.20100
C1643       C  0.77394173  0.70195194  0.82659297    -0.25400
C1644       C  0.76653646  0.67808324  0.85231454     0.27300
H1645       H  0.75037609  0.71413503  0.92012869     0.13100
N1646       N  0.76771618  0.76490554  0.87828328    -0.82600
H1647       H  0.77959380  0.69818719  0.80009396     0.17900
N1648       N  0.76860725  0.65003204  0.84387090    -0.81200
H1649       H  0.76073700  0.76429000  0.90438880     0.33600
H1650       H  0.79170805  0.78372706  0.87651870     0.38100
H1651       H  0.77600648  0.65095942  0.81788427     0.33500
H1652       H  0.78668616  0.65058429  0.85952569     0.30200
H1653       H  0.78350410  0.69321622  0.98628837     0.33500
H1654       H  0.80068249  0.69681109  0.94688482     0.30200
H1655       H  0.69022574  0.55105189  0.92256612     0.38100
H1656       H  0.67713463  0.56591819  0.89136886     0.33600
C1657       C  0.40708053  0.47819076  0.99155687    -0.20200
C1658       C  0.43197551  0.51079386  0.99344029     0.36000
C1659       C  0.46364431  0.51799206  0.99962022    -0.26200
C1660       C  0.47078431  0.49331452  0.00288878     0.02500
C1661       C  0.44601858  0.46081812  0.00186248     0.27300
C1662       C  0.41422879  0.45353949  0.99649982    -0.25300
N1663       N  0.42541194  0.53635865  0.98703699    -0.82700
H1664       H  0.48308747  0.54290827  0.00056372     0.13100
C1665       C  0.50458911  0.50198426  0.00641807     0.02400
N1666       N  0.45345591  0.43549657  0.00519580    -0.81200
H1667       H  0.39511370  0.42853120  0.99470290     0.17900
C1668       C  0.51497884  0.49702824  0.03865270    -0.26100
C1669       C  0.54731340  0.50615236  0.04346485     0.36000
C1670       C  0.56920466  0.52008849  0.01530580    -0.20100
C1671       C  0.55882359  0.52456123  0.98283321    -0.25400
C1672       C  0.52641316  0.51568078  0.97813250     0.27300
H1673       H  0.49790783  0.48652927  0.06014913     0.13100
N1674       N  0.55829077  0.50192009  0.07693738    -0.82600
H1675       H  0.57606608  0.53551942  0.96157099     0.17900
N1676       N  0.51554113  0.52077662  0.94507146    -0.81200
H1677       H  0.53923126  0.49186775  0.09503462     0.33600
H1678       H  0.56599409  0.48526241  0.07369118     0.38100
H1679       H  0.53470935  0.53139713  0.92716502     0.33500
H1680       H  0.49887202  0.49814706  0.93492396     0.30200
H1681       H  0.43239152  0.41288687  0.00382847     0.33500
H1682       H  0.46770388  0.43698961  0.98364766     0.30200
H1683       H  0.41857726  0.53474607  0.96082553     0.38100
H1684       H  0.44639364  0.55887301  0.98990794     0.33600
C1685       C  0.80850593  0.39890433  0.07986780    -0.20200
C1686       C  0.78924565  0.40092320  0.10682132     0.36000
C1687       C  0.77501378  0.42007046  0.10181696    -0.26200
C1688       C  0.77995486  0.43750300  0.07072287     0.02500
C1689       C  0.80083012  0.43723912  0.04483951     0.27300
C1690       C  0.81409128  0.41728263  0.04925890    -0.25300
N1691       N  0.78304988  0.38255607  0.13847421    -0.82700
H1692       H  0.75926085  0.42074333  0.12183862     0.13100
C1693       C  0.76210433  0.45487138  0.06512006     0.02400
N1694       N  0.80910101  0.45777021  0.01460160    -0.81200
H1695       H  0.82850841  0.41573265  0.02834565     0.17900
C1696       C  0.77283298  0.48477195  0.08141824    -0.26100
C1697       C  0.75523721  0.50083780  0.07853862     0.36000
C1698       C  0.72680639  0.48703410  0.05828606    -0.20100
C1699       C  0.71650936  0.45747594  0.04134172    -0.25400
C1700       C  0.73350866  0.44090632  0.04510371     0.27300
H1701       H  0.79456717  0.49517615  0.09709404     0.13100
N1702       N  0.76565638  0.53074664  0.09668699    -0.82600
H1703       H  0.69403398  0.44635682  0.02690279     0.17900
N1704       N  0.72070045  0.40906101  0.03067561    -0.81200
H1705       H  0.78683858  0.53755801  0.11064768     0.33600
H1706       H  0.77141138  0.54858863  0.07782910     0.38100
H1707       H  0.69873461  0.40170236  0.01811230     0.33500
H1708       H  0.73662084  0.40994272  0.01139882     0.30200
H1709       H  0.82564660  0.45549347  0.99867349     0.33500
H1710       H  0.78835263  0.45008650  0.99963316     0.30200
H1711       H  0.76943605  0.35814084  0.13182815     0.38100
H1712       H  0.76882887  0.38712472  0.15575299     0.33600
C1713       C  0.50258739  0.24791874  0.06699190    -0.20200
C1714       C  0.49629924  0.26363803  0.09454275     0.36000
C1715       C  0.51230541  0.29757565  0.09561653    -0.26200
C1716       C  0.53517185  0.31652179  0.06996350     0.02500
C1717       C  0.54189519  0.30072890  0.04245363     0.27300
C1718       C  0.52479607  0.26682152  0.04081199    -0.25300
N1719       N  0.47338126  0.24522649  0.12134126    -0.82700
H1720       H  0.50711212  0.30924594  0.11693014     0.13100
C1721       C  0.55261178  0.35245653  0.07353940     0.02400
N1722       N  0.56664408  0.31800644  0.01653233    -0.81200
H1723       H  0.53048820  0.25514163  0.01992588     0.17900
C1724       C  0.57407561  0.36716873  0.10152438    -0.26100
C1725       C  0.59286961  0.40106704  0.10460825     0.36000
C1726       C  0.59068678  0.42078906  0.07862630    -0.20100
C1727       C  0.56776859  0.40594829  0.05180098    -0.25400
C1728       C  0.54836733  0.37210640  0.04931163     0.27300
H1729       H  0.57673883  0.35205854  0.12060442     0.13100
N1730       N  0.61531942  0.41533816  0.13297721    -0.82600
H1731       H  0.56543408  0.42088831  0.03221645     0.17900
N1732       N  0.52412825  0.35770582  0.02257997    -0.81200
H1733       H  0.61516494  0.39747908  0.14863772     0.33600
H1734       H  0.60705348  0.42742631  0.14892220     0.38100
H1735       H  0.52310880  0.37552502  0.00799822     0.33500
H1736       H  0.53101279  0.34551189  0.00508577     0.30200
H1737       H  0.58365641  0.31065085  0.01878860     0.33500
H1738       H  0.57923004  0.34278135  0.02124473     0.30200
H1739       H  0.48514885  0.25203607  0.14548740     0.38100
H1740       H  0.45542381  0.25142314  0.12134441     0.33600
C1741       C  0.54387450  0.61311816  0.29947785    -0.20200
C1742       C  0.54658051  0.62351091  0.26440964     0.36000
C1743       C  0.55807815  0.61074480  0.23844623    -0.26200
C1744       C  0.56575335  0.58681523  0.24635671     0.02500
C1745       C  0.56076729  0.57485754  0.28101773     0.27300
C1746       C  0.55064996  0.58860734  0.30722063    -0.25300
N1747       N  0.53954688  0.64834947  0.25561416    -0.82700
H1748       H  0.56201633  0.62028428  0.21207857     0.13100
C1749       C  0.58053362  0.57576702  0.21874409     0.02400
N1750       N  0.56623629  0.54892251  0.28956096    -0.81200
H1751       H  0.54837359  0.58039290  0.33404664     0.17900
C1752       C  0.60916014  0.57561298  0.22618479    -0.26100
C1753       C  0.62448871  0.56642768  0.20082370     0.36000
C1754       C  0.61148500  0.55796316  0.16679807    -0.20100
C1755       C  0.58311121  0.55836366  0.15913854    -0.25400
C1756       C  0.56717154  0.56651580  0.18482864     0.27300
H1757       H  0.62005126  0.58339031  0.25177248     0.13100
N1758       N  0.65421197  0.56747521  0.20893556    -0.82600
H1759       H  0.57333862  0.55225659  0.13289648     0.17900
N1760       N  0.53744129  0.56536998  0.17656859    -0.81200
H1761       H  0.66137985  0.57568586  0.23453826     0.33600
H1762       H  0.64971421  0.54382163  0.20819598     0.38100
H1763       H  0.53094381  0.55824632  0.15056066     0.33500
H1764       H  0.51929593  0.54753637  0.19224410     0.30200
H1765       H  0.56155211  0.54297432  0.31609657     0.33500
H1766       H  0.54953159  0.52860394  0.27550050     0.30200
H1767       H  0.51470104  0.63874410  0.25911699     0.38100
H1768       H  0.54424243  0.65434075  0.22910370     0.33600
C1769       C  0.59348894  0.71334181  0.50237294    -0.20200
C1770       C  0.58718816  0.70159170  0.53702067     0.36000
C1771       C  0.61152915  0.71647833  0.56253769    -0.26200
C1772       C  0.64203447  0.74318678  0.55435321     0.02500
C1773       C  0.64795280  0.75534598  0.51971614     0.27300
C1774       C  0.62382158  0.73999510  0.49407166    -0.25300
N1775       N  0.55685110  0.67334602  0.54562491    -0.82700
H1776       H  0.60702237  0.70646735  0.58872358     0.13100
C1777       C  0.66798622  0.75659613  0.58169808     0.02400
N1778       N  0.67853249  0.78305410  0.51060872    -0.81200
H1779       H  0.62879763  0.74864660  0.46730164     0.17900
C1780       C  0.69829436  0.76003470  0.57403754    -0.26100
C1781       C  0.72242645  0.76991904  0.59976931     0.36000
C1782       C  0.71609809  0.77611726  0.63419084    -0.20100
C1783       C  0.68606781  0.77316398  0.64186748    -0.25400
C1784       C  0.66222230  0.76410732  0.61588494     0.27300
H1785       H  0.70277108  0.75380146  0.54815012     0.13100
N1786       N  0.75282476  0.77231258  0.59143393    -0.79000
H1787       H  0.68120743  0.77789593  0.66831687     0.17900
N1788       N  0.63213592  0.76240597  0.62412117    -0.81200
H1789       H  0.75376150  0.76716160  0.56496143     0.33600
H1790       H  0.75422330  0.75455106  0.60571097     0.38100
H1791       H  0.63166537  0.76858071  0.65031546     0.33500
H1792       H  0.63083312  0.77977585  0.60896254     0.30200
H1793       H  0.67910878  0.78874670  0.48410334     0.33500
H1794       H  0.68072448  0.80267465  0.52484210     0.30200
H1795       H  0.53880786  0.67925897  0.54300401     0.38100
H1796       H  0.55648162  0.66700080  0.57186526     0.33600
C1797       C  0.60611246  0.75391619  0.35196791    -0.20200
C1798       C  0.61468677  0.76734120  0.31819965     0.36000
C1799       C  0.63908051  0.79983264  0.31468423    -0.26200
C1800       C  0.65439582  0.81859046  0.34439237     0.02500
C1801       C  0.64559363  0.80518546  0.37804242     0.27300
C1802       C  0.62157120  0.77288329  0.38149053    -0.25300
N1803       N  0.59898715  0.74796306  0.28791123    -0.82700
H1804       H  0.64611690  0.81063905  0.28890625     0.13100
C1805       C  0.67920813  0.85261593  0.34025091     0.02400
N1806       N  0.66096958  0.82456588  0.40847557    -0.81200
H1807       H  0.61456178  0.76245247  0.40744733     0.17900
C1808       C  0.67109885  0.87615231  0.34783966    -0.26100
C1809       C  0.69378757  0.90888719  0.34321052     0.36000
C1810       C  0.72490505  0.91784195  0.33082750    -0.20100
C1811       C  0.73355650  0.89434166  0.32521549    -0.25400
C1812       C  0.71080473  0.86157452  0.32978738     0.27300
H1813       H  0.64685828  0.86884787  0.35674206     0.13100
N1814       N  0.68534142  0.93308479  0.35036304    -0.82600
H1815       H  0.75751708  0.90144337  0.31546712     0.17900
N1816       N  0.71928644  0.83732943  0.32311629    -0.81200
H1817       H  0.66146075  0.92242273  0.35926173     0.33600
H1818       H  0.69996330  0.94739294  0.37088004     0.38100
H1819       H  0.74344715  0.84800135  0.31523253     0.33500
H1820       H  0.71729640  0.82559694  0.34680969     0.30200
H1821       H  0.65133167  0.81105521  0.43136295     0.33500
H1822       H  0.68532501  0.83116842  0.40758710     0.30200
H1823       H  0.60470743  0.72968497  0.28665685     0.38100
H1824       H  0.60819514  0.76161922  0.26506701     0.33600
C1825       C  0.50874747  0.57396680  0.46302634    -0.20200
C1826       C  0.50070760  0.54806503  0.43990039     0.36000
C1827       C  0.49165597  0.51778981  0.45372640    -0.26200
C1828       C  0.49068402  0.51333090  0.48992419     0.02500
C1829       C  0.49861353  0.53906396  0.51311092     0.27300
C1830       C  0.50731893  0.56933674  0.49933096    -0.25300
N1831       N  0.50157112  0.55263487  0.40260107    -0.82700
H1832       H  0.48552373  0.49762468  0.43635187     0.13100
C1833       C  0.48247916  0.48165649  0.50306854     0.02400
N1834       N  0.49865095  0.53446982  0.55030497    -0.81200
H1835       H  0.51373734  0.58950793  0.51679612     0.17900
C1836       C  0.50733493  0.47490555  0.50743106    -0.26100
C1837       C  0.50066989  0.44494667  0.52025226     0.36000
C1838       C  0.46843917  0.42158978  0.52853141    -0.20100
C1839       C  0.44353836  0.42838134  0.52357109    -0.25400
C1840       C  0.45027350  0.45830009  0.51057521     0.27300
H1841       H  0.53198327  0.49324936  0.50120614     0.13100
N1842       N  0.52648966  0.43852047  0.52579265    -0.82600
H1843       H  0.41881144  0.41027082  0.52982293     0.17900
N1844       N  0.42468494  0.46495492  0.50443733    -0.81200
H1845       H  0.54861539  0.45816019  0.51785835     0.33600
H1846       H  0.52818396  0.43599305  0.55275882     0.38100
H1847       H  0.40226998  0.44485332  0.51075484     0.33500
H1848       H  0.42791690  0.48340287  0.52144942     0.30200
H1849       H  0.50580262  0.55609803  0.56358752     0.33500
H1850       H  0.47489382  0.51839570  0.55814900     0.30200
H1851       H  0.48396675  0.55850595  0.39650075     0.38100
H1852       H  0.49523070  0.53114797  0.38938922     0.33600
C1853       C  0.48011063  0.73414345  0.40791007    -0.20200
C1854       C  0.49079670  0.75933744  0.38302800     0.36000
C1855       C  0.47652295  0.77874276  0.38234118    -0.26200
C1856       C  0.45149741  0.77324974  0.40558272     0.02500
C1857       C  0.44060655  0.74796655  0.43022084     0.27300
C1858       C  0.45557572  0.72925254  0.43168734    -0.25300
N1859       N  0.51569715  0.76477343  0.35817801    -0.82700
H1860       H  0.48436622  0.79775652  0.36302332     0.13100
C1861       C  0.43478056  0.79201344  0.40169062     0.02400
N1862       N  0.41282907  0.73979656  0.45182081    -0.81200
H1863       H  0.44665625  0.70942277  0.45009860     0.17900
C1864       C  0.41214979  0.78369212  0.37477963    -0.26100
C1865       C  0.39339183  0.79852830  0.37194664     0.36000
C1866       C  0.39724788  0.82213652  0.39674081    -0.20100
C1867       C  0.42087755  0.83136270  0.42282290    -0.25400
C1868       C  0.44022913  0.81708028  0.42504975     0.27300
H1869       H  0.40840479  0.76476908  0.35657030     0.13100
N1870       N  0.36944992  0.78863666  0.34493758    -0.82600
H1871       H  0.42409741  0.84964647  0.44164477     0.17900
N1872       N  0.46593597  0.82858448  0.45017822    -0.81200
H1873       H  0.36997822  0.77137082  0.32864316     0.33600
H1874       H  0.34674843  0.77732289  0.35706861     0.38100
H1875       H  0.46727913  0.84773886  0.46466258     0.33500
H1876       H  0.46063635  0.81016577  0.46801500     0.30200
H1877       H  0.40690770  0.71956844  0.46719306     0.33500
H1878       H  0.41879454  0.75875945  0.46921823     0.30200
H1879       H  0.53689715  0.77185744  0.37218763     0.38100
H1880       H  0.52044801  0.78386353  0.34142429     0.33600
C1881       C  0.40968842  0.59339348  0.39272348    -0.20200
C1882       C  0.38882883  0.59482066  0.36770501     0.36000
C1883       C  0.35505718  0.57511831  0.37189426    -0.26200
C1884       C  0.34159238  0.55343338  0.39995854     0.02500
C1885       C  0.36231818  0.54972641  0.42303494     0.27300
C1886       C  0.39605996  0.57007241  0.41952521    -0.25300
N1887       N  0.40178331  0.61748702  0.33929364    -0.82700
H1888       H  0.33904452  0.57736101  0.35374682     0.13100
C1889       C  0.30591270  0.53642426  0.40577402     0.02400
N1890       N  0.34914057  0.52500764  0.44946993    -0.81200
H1891       H  0.41184370  0.56813833  0.43828158     0.17900
C1892       C  0.28532002  0.51012110  0.38450563    -0.26100
C1893       C  0.25138627  0.49553130  0.38713841     0.36000
C1894       C  0.23772633  0.50718831  0.41193797    -0.20100
C1895       C  0.25841049  0.53305808  0.43369603    -0.25400
C1896       C  0.29228394  0.54823736  0.43036215     0.27300
H1897       H  0.29581195  0.50145559  0.36523705     0.13100
N1898       N  0.23075110  0.46921246  0.36443293    -0.82600
H1899       H  0.24808379  0.54266217  0.45203942     0.17900
N1900       N  0.31280652  0.57700106  0.45006277    -0.81200
H1901       H  0.24448716  0.46364215  0.34756992     0.33600
H1902       H  0.21711351  0.44888117  0.38010916     0.38100
H1903       H  0.29898070  0.58347386  0.46559581     0.33500
H1904       H  0.32649704  0.57199954  0.46729764     0.30200
H1905       H  0.36767299  0.52502430  0.46370771     0.33500
H1906       H  0.33588984  0.53029098  0.46730023     0.30200
H1907       H  0.41404002  0.60997329  0.32257691     0.38100
H1908       H  0.38315542  0.61670252  0.32447946     0.33600
loop_ 
_geom_bond_atom_site_label_1 
_geom_bond_atom_site_label_2 
_geom_bond_distance 
_geom_bond_site_symmetry_2 
_ccdc_geom_bond_type 
Fe1          O17   2.028       .  S
Fe1           O7   2.063       .  S
Fe1          O14   2.057       .  S
Fe1           O6   2.029       .  S
Fe1          O12   1.969       .  S
Fe2           O5   2.063       .  S
Fe2           O9   2.090       .  S
Fe2          O13   2.083       .  S
Fe2          O18   2.098       .  S
Fe2          O12   1.976       .  S
Fe3          O21   2.082       .  S
Fe3           O8   2.068       .  S
Fe3          O15   2.081       .  S
Fe3           O4   2.071       .  S
Fe3          O12   1.976       .  S
O4           C11   1.273       .  A
O5           C19   1.267       .  A
O6           C11   1.267       .  A
O7           C10   1.264       .  A
O8           C20   1.272       .  A
O9           C22   1.278       .  A
C10          O15   1.269       .  A
C10        C1769   1.483       .  S
C11        C1825   1.456       .  S
O13          C16   1.267       .  A
O14          C16   1.262       .  A
C16        C1741   1.491       .  S
O17          C22   1.269       .  A
O18          C20   1.279       .  A
C19          O21   1.272       .  A
C19        C1853   1.490       .  S
C20        C1881   1.497       .  S
C22        C1797   1.463       .  S
Fe23         O39   2.037       .  S
Fe23         O29   2.055       .  S
Fe23         O36   2.057       .  S
Fe23         O28   2.035       .  S
Fe23         O34   1.976       .  S
Fe24         O27   2.064       .  S
Fe24         O31   2.069       .  S
Fe24         O35   2.086       .  S
Fe24         O40   2.085       .  S
Fe24         O34   1.978       .  S
Fe25         O43   2.080       .  S
Fe25         O30   2.075       .  S
Fe25         O37   2.102   1_554  S
Fe25         O26   2.066       .  S
Fe25         O34   1.983       .  S
O26          C33   1.271       .  A
O27          C41   1.269       .  A
O28          C33   1.267       .  A
O29          C32   1.263   1_554  A
O30          C42   1.272       .  A
O31          C44   1.274       .  A
C32          O37   1.272       .  A
C32        C1629   1.498       .  S
C33        C1670   1.452       .  S
O35          C38   1.269       .  A
O36          C38   1.262       .  A
C38        C1754   1.488       .  S
O39          C44   1.269       .  A
O40          C42   1.274       .  A
C41          O43   1.273       .  A
C41        C1698   1.479       .  S
C42        C1726   1.495       .  S
C44        C1614   1.469       .  S
Fe45         O61   2.043       .  S
Fe45         O51   2.060       .  S
Fe45         O58   2.068       .  S
Fe45         O50   2.040       .  S
Fe45         O56   1.973       .  S
Fe46         O49   2.071       .  S
Fe46         O53   2.071       .  S
Fe46         O57   2.084       .  S
Fe46         O62   2.087       .  S
Fe46         O56   1.974       .  S
Fe47         O65   2.074       .  S
Fe47         O52   2.061       .  S
Fe47         O59   2.078       .  S
Fe47         O48   2.063       .  S
Fe47         O56   1.982       .  S
O48          C55   1.272       .  A
O49          C63   1.271       .  A
O50          C55   1.270       .  A
O51          C54   1.262       .  A
O52          C64   1.268       .  A
O53          C66   1.275       .  A
C54          O59   1.267       .  A
C54        C1782   1.486       .  S
C55        C1517   1.453       .  S
O57          C60   1.268       .  A
O58          C60   1.264       .  A
C60        C1642   1.493       .  S
O61          C66   1.269       .  A
O62          C64   1.273       .  A
C63          O65   1.273       .  A
C63        C1545   1.478       .  S
C64        C1573   1.485       .  S
C66        C1489   1.461       .  S
Fe67         O83   2.057       .  S
Fe67         O73   2.034       .  S
Fe67         O80   2.027       .  S
Fe67         O72   2.052       .  S
Fe67         O78   1.972       .  S
Fe68         O71   2.081       .  S
Fe68         O75   2.090       .  S
Fe68         O79   2.079       .  S
Fe68         O84   2.068       .  S
Fe68         O78   1.977       .  S
Fe69         O87   2.065       .  S
Fe69         O74   2.079       .  S
Fe69         O81   2.074       .  S
Fe69         O70   2.082       .  S
Fe69         O78   1.978       .  S
O70          C77   1.268       .  A
O71          C85   1.273       .  A
O72          C77   1.261       .  A
O73          C76   1.269       .  A
O74          C86   1.274       .  A
O75          C88   1.270       .  A
C76          O81   1.275       .  A
C76        C1657   1.466       .  S
C77        C1390   1.494   1_556  S
O79          C82   1.275       .  A
O80          C82   1.266       .  A
C82        C1418   1.481       .  S
O83          C88   1.264       .  A
O84          C86   1.271       .  A
C85          O87   1.268       .  A
C85        C1446   1.491       .  S
C86        C1474   1.491       .  S
C88        C1349   1.504       .  S
Fe89        O105   2.050       .  S
Fe89         O95   2.031       .  S
Fe89        O102   2.026       .  S
Fe89         O94   2.056       .  S
Fe89        O100   1.968       .  S
Fe90         O93   2.079       .  S
Fe90         O97   2.094       .  S
Fe90        O101   2.079       .  S
Fe90        O106   2.072       .  S
Fe90        O100   1.977       .  S
Fe91        O109   2.076       .  S
Fe91         O96   2.071       .  S
Fe91        O103   2.070       .  S
Fe91         O92   2.097       .  S
Fe91        O100   1.974       .  S
O92          C99   1.271       .  A
O93         C107   1.274       .  A
O94          C99   1.262       .  A
O95          C98   1.268       .  A
O96         C108   1.271       .  A
O97         C110   1.268       .  A
C98         O103   1.274       .  A
C98        C1838   1.462       .  S
C99        C1265   1.509       .  S
O101        C104   1.276       .  A
O102        C104   1.269       .  A
C104       C1250   1.472       .  S
O105        C110   1.263       .  A
O106        C108   1.271       .  A
C107        O109   1.273       .  A
C107       C1293   1.498       .  S
C108       C1334   1.490       .  S
C110       C1362   1.508       .  S
Fe111       O127   2.047       .  S
Fe111       O117   2.039       .  S
Fe111       O124   2.040       .  S
Fe111       O116   2.052       .  S
Fe111       O122   1.965       .  S
Fe112       O115   2.074       .  S
Fe112       O119   2.086       .  S
Fe112       O123   2.067       .  S
Fe112       O128   2.077       .  S
Fe112       O122   1.974       .  S
Fe113       O131   2.075       .  S
Fe113       O118   2.078       .  S
Fe113       O125   2.073       .  S
Fe113       O114   2.098       .  S
Fe113       O122   1.971       .  S
O114        C121   1.270       .  A
O115        C129   1.272       .  A
O116        C121   1.261       .  A
O117        C120   1.271       .  A
O118        C130   1.272       .  A
O119        C132   1.267       .  A
C120        O125   1.276       .  A
C120       C1153   1.466       .  S
C121       C1278   1.510       .  S
O123        C126   1.276       .  A
O124        C126   1.272       .  A
C126       C1125   1.460       .  S
O127        C132   1.260       .  A
O128        C130   1.272       .  A
C129        O131   1.272       .  A
C129       C1222   1.492       .  S
C130       C1194   1.499       .  S
C132       C1377   1.497       .  S
Fe133       O149   2.043       .  S
Fe133       O139   2.059       .  S
Fe133       O146   2.059       .  S
Fe133       O138   2.037       .  S
Fe133       O144   1.973       .  S
Fe134       O137   2.057       .  S
Fe134       O141   2.064       .  S
Fe134       O145   2.081   1_554  S
Fe134       O150   2.076       .  S
Fe134       O144   1.974       .  S
Fe135       O153   2.077       .  S
Fe135       O140   2.091       .  S
Fe135       O147   2.098       .  S
Fe135       O136   2.065       .  S
Fe135       O144   1.974       .  S
O136        C143   1.275       .  A
O137        C151   1.266       .  A
O138        C143   1.270       .  A
O139        C142   1.263       .  A
O140        C152   1.275       .  A
O141        C154   1.275       .  A
C142        O147   1.270       .  A
C142       C1069   1.511       .  S
C143       C1138   1.467       .  S
O145        C148   1.266       .  A
O146        C148   1.262   1_554  A
C148       C1041   1.491       .  S
O149        C154   1.271       .  A
O150        C152   1.275       .  A
C151        O153   1.270       .  A
C151       C1097   1.481       .  S
C152       C1713   1.492       .  S
C154       C1026   1.462       .  S
Fe155       O171   2.052       .  S
Fe155       O161   2.078       .  S
Fe155       O168   2.073   1_545  S
Fe155       O160   2.051   1_545  S
Fe155       O166   1.969   1_545  S
Fe156       O159   2.085   1_565  S
Fe156       O163   2.051   1_565  S
Fe156       O167   2.090       .  S
Fe156       O172   2.080       .  S
Fe156       O166   1.964       .  S
Fe157       O175   2.086   1_565  S
Fe157       O162   2.068       .  S
Fe157       O169   2.075   1_565  S
Fe157       O158   2.062       .  S
Fe157       O166   1.958       .  S
O158        C165   1.275       .  A
O159        C173   1.272       .  A
O160        C165   1.272       .  A
O161        C164   1.267       .  A
O162        C174   1.270       .  A
O163        C176   1.272       .  A
C164        O169   1.266       .  A
C164       C1054   1.495       .  S
C165        C957   1.463       .  S
O167        C170   1.269       .  A
O168        C170   1.265       .  A
C170        C942   1.496       .  S
O171        C176   1.271       .  A
O172        C174   1.275       .  A
C173        O175   1.274       .  A
C173        C985   1.492       .  S
C174       C1586   1.493       .  S
C176       C1237   1.448       .  S
Fe177       O193   2.064       .  S
Fe177       O183   2.059       .  S
Fe177       O190   2.063       .  S
Fe177       O182   2.057       .  S
Fe177       O188   1.975       .  S
Fe178       O181   2.080       .  S
Fe178       O185   2.073       .  S
Fe178       O189   2.092       .  S
Fe178       O194   2.090       .  S
Fe178       O188   1.974       .  S
Fe179       O197   2.070       .  S
Fe179       O184   2.078       .  S
Fe179       O191   2.100       .  S
Fe179       O180   2.064       .  S
Fe179       O188   1.980       .  S
O180        C187   1.271       .  A
O181        C195   1.271       .  A
O182        C187   1.272       .  A
O183        C186   1.265       .  A
O184        C196   1.273       .  A
O185        C198   1.276       .  A
C186        O191   1.271       .  A
C186       C1082   1.510       .  S
C187        C845   1.475       .  S
O189        C192   1.269       .  A
O190        C192   1.264       .  A
C192        C929   1.501       .  S
O193        C198   1.274       .  A
O194        C196   1.276       .  A
C195        O197   1.271       .  A
C195       C1866   1.487       .  S
C196        C901   1.505       .  S
C198        C873   1.478       .  S
Fe199       O215   2.048       .  S
Fe199       O205   2.053       .  S
Fe199       O212   2.055       .  S
Fe199       O204   2.041       .  S
Fe199       O210   1.965       .  S
Fe200       O203   2.073       .  S
Fe200       O207   2.078   1_556  S
Fe200       O211   2.064       .  S
Fe200       O216   2.057       .  S
Fe200       O210   1.968       .  S
Fe201       O219   2.079       .  S
Fe201       O206   2.079       .  S
Fe201       O213   2.060       .  S
Fe201       O202   2.091       .  S
Fe201       O210   1.970       .  S
O202        C209   1.270       .  A
O203        C217   1.276       .  A
O204        C209   1.262       .  A
O205        C208   1.271       .  A
O206        C218   1.270       .  A
O207        C220   1.265       .  A
C208        O213   1.272       .  A
C208       C1502   1.465       .  S
C209        C802   1.499       .  S
O211        C214   1.275       .  A
O212        C214   1.273       .  A
C214       C1013   1.471       .  S
O215        C220   1.262   1_556  A
O216        C218   1.265       .  A
C217        O219   1.275       .  A
C217       C1433   1.485       .  S
C218        C817   1.485       .  S
C220        C761   1.497       .  S
Fe221       O237   2.058       .  S
Fe221       O227   2.046       .  S
Fe221       O234   2.045   1_545  S
Fe221       O226   2.054   1_545  S
Fe221       O232   1.970       .  S
Fe222       O225   2.086       .  S
Fe222       O229   2.100       .  S
Fe222       O233   2.064   1_545  S
Fe222       O238   2.081   1_545  S
Fe222       O232   1.974       .  S
Fe223       O241   2.060       .  S
Fe223       O228   2.093   1_545  S
Fe223       O235   2.087       .  S
Fe223       O224   2.078   1_545  S
Fe223       O232   1.970       .  S
O224        C231   1.265       .  A
O225        C239   1.274       .  A
O226        C231   1.263       .  A
O227        C230   1.272       .  A
O228        C240   1.277       .  A
O229        C242   1.272       .  A
C230        O235   1.280       .  A
C230        C677   1.482       .  S
C231        C774   1.503       .  S
O233        C236   1.273       .  A
O234        C236   1.271       .  A
C236       C1810   1.461       .  S
O237        C242   1.264       .  A
O238        C240   1.274       .  A
C239        O241   1.268       .  A
C239       C1209   1.489       .  S
C240        C733   1.508       .  S
C242        C718   1.507       .  S
Fe243       O259   2.049       .  S
Fe243       O249   2.053       .  S
Fe243       O256   2.052       .  S
Fe243       O248   2.043       .  S
Fe243       O254   1.963       .  S
Fe244       O247   2.071       .  S
Fe244       O251   2.103       .  S
Fe244       O255   2.073       .  S
Fe244       O260   2.081       .  S
Fe244       O254   1.970       .  S
Fe245       O263   2.066       .  S
Fe245       O250   2.071       .  S
Fe245       O257   2.060       .  S
Fe245       O246   2.087       .  S
Fe245       O254   1.978       .  S
O246        C253   1.267       .  A
O247        C261   1.269       .  A
O248        C253   1.260       .  A
O249        C252   1.274       .  A
O250        C262   1.274       .  A
O251        C264   1.271       .  A
C252        O257   1.274       .  A
C252        C634   1.466       .  S
C253        C789   1.502       .  S
O255        C258   1.273       .  A
O256        C258   1.273       .  A
C258        C886   1.482       .  S
O259        C264   1.262       .  A
O260        C262   1.276       .  A
C261        O263   1.269       .  A
C261        C662   1.492       .  S
C262       C1321   1.486       .  S
C264        C705   1.508       .  S
Fe265       O281   2.029       .  S
Fe265       O271   2.059       .  S
Fe265       O278   2.057       .  S
Fe265       O270   2.026       .  S
Fe265       O276   1.964       .  S
Fe266       O269   2.068       .  S
Fe266       O273   2.086       .  S
Fe266       O277   2.095       .  S
Fe266       O282   2.080       .  S
Fe266       O276   1.959       .  S
Fe267       O285   2.097       .  S
Fe267       O272   2.077       .  S
Fe267       O279   2.098       .  S
Fe267       O268   2.094       .  S
Fe267       O276   1.964       .  S
O268        C275   1.281       .  A
O269        C283   1.273       .  A
O270        C275   1.271       .  A
O271        C274   1.261       .  A
O272        C284   1.271       .  A
O273        C286   1.279       .  A
C274        O279   1.269       .  A
C274        C593   1.501       .  S
C275       C1166   1.457       .  S
O277        C280   1.268       .  A
O278        C280   1.261       .  A
C280        C565   1.491       .  S
O281        C286   1.272       .  A
O282        C284   1.273       .  A
C283        O285   1.278       .  A
C283        C914   1.500       .  S
C284       C1894   1.491       .  S
C286        C550   1.459       .  S
Fe287       O303   2.059       .  S
Fe287       O293   2.047       .  S
Fe287       O300   2.061       .  S
Fe287       O292   2.051       .  S
Fe287       O298   1.971       .  S
Fe288       O291   2.069       .  S
Fe288       O295   2.064       .  S
Fe288       O299   2.080       .  S
Fe288       O304   2.074       .  S
Fe288       O298   1.973       .  S
Fe289       O307   2.081       .  S
Fe289       O294   2.078       .  S
Fe289       O301   2.101       .  S
Fe289       O290   2.066       .  S
Fe289       O298   1.980       .  S
O290        C297   1.274       .  A
O291        C305   1.269       .  A
O292        C297   1.272       .  A
O293        C296   1.263       .  A
O294        C306   1.272       .  A
O295        C308   1.274       .  A
C296        O301   1.271       .  A
C296        C606   1.508       .  S
C297        C690   1.469       .  S
O299        C302   1.266       .  A
O300        C302   1.262       .  A
C302        C494   1.491   1_554  S
O303        C308   1.274       .  A
O304        C306   1.274       .  A
C305        O307   1.273       .  A
C305       C1685   1.491       .  S
C306       C1110   1.497       .  S
C308        C522   1.477       .  S
Fe309       O325   2.047   1_655  S
Fe309       O315   2.065   1_655  S
Fe309       O322   2.060       .  S
Fe309       O314   2.044       .  S
Fe309       O320   1.979       .  S
Fe310       O313   2.074   1_655  S
Fe310       O317   2.059   1_655  S
Fe310       O321   2.089       .  S
Fe310       O326   2.083       .  S
Fe310       O320   1.979       .  S
Fe311       O329   2.090   1_655  S
Fe311       O316   2.072       .  S
Fe311       O323   2.082   1_655  S
Fe311       O312   2.073       .  S
Fe311       O320   1.975       .  S
O312        C319   1.275       .  A
O313        C327   1.270       .  A
O314        C319   1.270       .  A
O315        C318   1.265       .  A
O316        C328   1.271       .  A
O317        C330   1.273       .  A
C318        O323   1.269       .  A
C318        C578   1.496       .  S
C319        C621   1.475       .  S
O321        C324   1.270       .  A
O322        C324   1.263       .  A
C324        C481   1.490       .  S
O325        C330   1.269       .  A
O326        C328   1.274       .  A
C327        O329   1.274       .  A
C327        C998   1.505       .  S
C328       C1558   1.492       .  S
C330       C1405   1.456       .  S
Fe331       O347   2.042       .  S
Fe331       O337   2.032       .  S
Fe331       O344   2.038       .  S
Fe331       O336   2.037       .  S
Fe331       O342   1.959       .  S
Fe332       O335   2.077       .  S
Fe332       O339   2.097       .  S
Fe332       O343   2.079       .  S
Fe332       O348   2.071       .  S
Fe332       O342   1.969       .  S
Fe333       O351   2.073       .  S
Fe333       O338   2.073       .  S
Fe333       O345   2.083       .  S
Fe333       O334   2.100       .  S
Fe333       O342   1.975       .  S
O334        C341   1.270       .  A
O335        C349   1.273       .  A
O336        C341   1.258       .  A
O337        C340   1.271       .  A
O338        C350   1.272       .  A
O339        C352   1.268       .  A
C340        O345   1.277       .  A
C340        C970   1.467       .  S
C341        C453   1.501       .  S
O343        C346   1.277       .  A
O344        C346   1.271       .  A
C346        C509   1.477       .  S
O347        C352   1.260       .  A
O348        C350   1.271       .  A
C349        O351   1.272       .  A
C349        C830   1.488       .  S
C350       C1461   1.483       .  S
C352        C425   1.506   1_556  S
Fe353       O369   2.055   1_655  S
Fe353       O359   2.052   1_655  S
Fe353       O366   2.047       .  S
Fe353       O358   2.060       .  S
Fe353       O364   1.964       .  S
Fe354       O357   2.074   1_655  S
Fe354       O361   2.098   1_655  S
Fe354       O365   2.055       .  S
Fe354       O370   2.088       .  S
Fe354       O364   1.963       .  S
Fe355       O373   2.077   1_655  S
Fe355       O360   2.090       .  S
Fe355       O367   2.072   1_655  S
Fe355       O356   2.088       .  S
Fe355       O364   1.965       .  S
O356        C363   1.269       .  A
O357        C371   1.270       .  A
O358        C363   1.264       .  A
O359        C362   1.272       .  A
O360        C372   1.279       .  A
O361        C374   1.273       .  A
C362        O367   1.277       .  A
C362        C858   1.472       .  S
C363        C397   1.503       .  S
O365        C368   1.270       .  A
O366        C368   1.269       .  A
C368       C1601   1.455       .  S
O369        C374   1.265       .  A
O370        C372   1.276       .  A
C371        O373   1.269       .  A
C371       C1181   1.494       .  S
C372        C746   1.493       .  S
C374        C438   1.507       .  S
Fe375       O391   2.056       .  S
Fe375       O381   2.038       .  S
Fe375       O388   2.036       .  S
Fe375       O380   2.052       .  S
Fe375       O386   1.973       .  S
Fe376       O379   2.069       .  S
Fe376       O383   2.084       .  S
Fe376       O387   2.063       .  S
Fe376       O392   2.068       .  S
Fe376       O386   1.973       .  S
Fe377       O395   2.084       .  S
Fe377       O382   2.083       .  S
Fe377       O389   2.065       .  S
Fe377       O378   2.090       .  S
Fe377       O386   1.976       .  S
O378        C385   1.271       .  A
O379        C393   1.272       .  A
O380        C385   1.263       .  A
O381        C384   1.268       .  A
O382        C394   1.272       .  A
O383        C396   1.268       .  A
C384        O389   1.273       .  A
C384       C1530   1.463       .  S
C385        C466   1.495       .  S
O387        C390   1.273       .  A
O388        C390   1.268       .  A
C390        C537   1.470       .  S
O391        C396   1.264       .  A
O392        C394   1.269       .  A
C393        O395   1.273       .  A
C393       C1306   1.487       .  S
C394        C649   1.486       .  S
C396        C410   1.503       .  S
C397        C398   1.418       .  A
C397        C402   1.411       .  A
C398        C399   1.413       .  A
C398        N403   1.437       .  S
C399        C400   1.406       .  A
C399        H404   1.084       .  S
C400        C405   1.498       .  S
C400        C401   1.410       .  A
C401        C402   1.408       .  A
C401        N406   1.438       .  S
C402        H407   1.083       .  S
N403        H423   1.046       .  S
N403        H424   1.045       .  S
C405        C408   1.406       .  A
C405        C412   1.410       .  A
N406        H421   1.046       .  S
N406        H422   1.045       .  S
C408        C409   1.414       .  A
C408        H413   1.083       .  S
C409        C410   1.419       .  A
C409        N414   1.437       .  S
C410        C411   1.411       .  A
C411        C412   1.407       .  A
C411        H415   1.083       .  S
C412        N416   1.438       .  S
N414        H417   1.046       .  S
N414        H418   1.045       .  S
N416        H419   1.045       .  S
N416        H420   1.046       .  S
C425        C426   1.418       .  A
C425        C430   1.413       .  A
C426        C427   1.417       .  A
C426        N431   1.437       .  S
C427        C428   1.408       .  A
C427        H432   1.083       .  S
C428        C433   1.498       .  S
C428        C429   1.408       .  A
C429        C430   1.405       .  A
C429        N434   1.439       .  S
C430        H435   1.083   1_554  S
N431        H451   1.045       .  S
N431        H452   1.046       .  S
C433        C436   1.406       .  A
C433        C440   1.409       .  A
N434        H449   1.046       .  S
N434        H450   1.045       .  S
C436        C437   1.415       .  A
C436        H441   1.083       .  S
C437        C438   1.418       .  A
C437        N442   1.437       .  S
C438        C439   1.413       .  A
C439        C440   1.408       .  A
C439        H443   1.083       .  S
C440        N444   1.438       .  S
N442        H445   1.045       .  S
N442        H446   1.046       .  S
N444        H447   1.046       .  S
N444        H448   1.045       .  S
C453        C454   1.421       .  A
C453        C458   1.408       .  A
C454        C455   1.400       .  A
C454        N459   1.434       .  S
C455        C456   1.399       .  A
C455        H460   1.084   1_455  S
C456        C461   1.497   1_455  S
C456        C457   1.415       .  A
C457        C458   1.417       .  A
C457        N462   1.437       .  S
C458        H463   1.083       .  S
N459        H479   1.046       .  S
N459        H480   1.046       .  S
C461        C464   1.402       .  A
C461        C468   1.416       .  A
N462        H477   1.046       .  S
N462        H478   1.045       .  S
C464        C465   1.406       .  A
C464        H469   1.084   1_655  S
C465        C466   1.416       .  A
C465        N470   1.432       .  S
C466        C467   1.406       .  A
C467        C468   1.411       .  A
C467        H471   1.083       .  S
C468        N472   1.438       .  S
N470        H473   1.045       .  S
N470        H474   1.046       .  S
N472        H475   1.046       .  S
N472        H476   1.045       .  S
C481        C482   1.412       .  A
C481        C486   1.405       .  A
C482        C483   1.411       .  A
C482        N487   1.438       .  S
C483        C484   1.408       .  A
C483        H488   1.083       .  S
C484        C489   1.506       .  S
C484        C485   1.416       .  A
C485        C486   1.413       .  A
C485        N490   1.438       .  S
C486        H491   1.084       .  S
N487        H507   1.044       .  S
N487        H508   1.046       .  S
C489        C492   1.408       .  A
C489        C496   1.416       .  A
N490        H505   1.045       .  S
N490        H506   1.046       .  S
C492        C493   1.411       .  A
C492        H497   1.083       .  S
C493        C494   1.413       .  A
C493        N498   1.438       .  S
C494        C495   1.405       .  A
C495        C496   1.412       .  A
C495        H499   1.084   1_556  S
C496        N500   1.437       .  S
N498        H501   1.046       .  S
N498        H502   1.045       .  S
N500        H503   1.046   1_556  S
N500        H504   1.045       .  S
C509        C510   1.413   1_556  A
C509        C514   1.407       .  A
C510        C511   1.403       .  A
C510        N515   1.438       .  S
C511        C512   1.402   1_554  A
C511        H516   1.084       .  S
C512        C517   1.475   1_455  S
C512        C513   1.407   1_455  A
C513        C514   1.398   1_655  A
C513        N518   1.439       .  S
C514        H519   1.084       .  S
N515        H535   1.046       .  S
N515        H536   1.046       .  S
C517        C520   1.398       .  A
C517        C524   1.409   1_556  A
N518        H533   1.046       .  S
N518        H534   1.046       .  S
C520        C521   1.398   1_556  A
C520        H525   1.084       .  S
C521        C522   1.415       .  A
C521        N526   1.436       .  S
C522        C523   1.405       .  A
C523        C524   1.403       .  A
C523        H527   1.084       .  S
C524        N528   1.438   1_655  S
N526        H529   1.046       .  S
N526        H530   1.045       .  S
N528        H531   1.046       .  S
N528        H532   1.046   1_554  S
C537        C538   1.411       .  A
C537        C542   1.406       .  A
C538        C539   1.400       .  A
C538        N543   1.438       .  S
C539        C540   1.402       .  A
C539        H544   1.084       .  S
C540        C545   1.469   1_655  S
C540        C541   1.406       .  A
C541        C542   1.395       .  A
C541        N546   1.439   1_655  S
C542        H547   1.083       .  S
N543        H563   1.046       .  S
N543        H564   1.045       .  S
C545        C548   1.401       .  A
C545        C552   1.409   1_455  A
N546        H561   1.046       .  S
N546        H562   1.045       .  S
C548        C549   1.397       .  A
C548        H553   1.084       .  S
C549        C550   1.409       .  A
C549        N554   1.438       .  S
C550        C551   1.401       .  A
C551        C552   1.399   1_455  A
C551        H555   1.084       .  S
C552        N556   1.438       .  S
N554        H557   1.046       .  S
N554        H558   1.045       .  S
N556        H559   1.046       .  S
N556        H560   1.045       .  S
C565        C566   1.414       .  A
C565        C570   1.406       .  A
C566        C567   1.417       .  A
C566        N571   1.436       .  S
C567        C568   1.407       .  A
C567        H572   1.083       .  S
C568        C573   1.492       .  S
C568        C569   1.409       .  A
C569        C570   1.406       .  A
C569        N574   1.439       .  S
C570        H575   1.084       .  S
N571        H591   1.045       .  S
N571        H592   1.046       .  S
C573        C576   1.402       .  A
C573        C580   1.412       .  A
N574        H589   1.045       .  S
N574        H590   1.045       .  S
C576        C577   1.411       .  A
C576        H581   1.084       .  S
C577        C578   1.417       .  A
C577        N582   1.438       .  S
C578        C579   1.408       .  A
C579        C580   1.412       .  A
C579        H583   1.083       .  S
C580        N584   1.438       .  S
N582        H585   1.046       .  S
N582        H586   1.046       .  S
N584        H587   1.045       .  S
N584        H588   1.045       .  S
C593        C594   1.420       .  A
C593        C598   1.408       .  A
C594        C595   1.408       .  A
C594        N599   1.439       .  S
C595        C596   1.400       .  A
C595        H600   1.084   1_455  S
C596        C601   1.495   1_455  S
C596        C597   1.412       .  A
C597        C598   1.417       .  A
C597        N602   1.437       .  S
C598        H603   1.083       .  S
N599        H619   1.045       .  S
N599        H620   1.046       .  S
C601        C604   1.406       .  A
C601        C608   1.406       .  A
N602        H617   1.045       .  S
N602        H618   1.045       .  S
C604        C605   1.419       .  A
C604        H609   1.083       .  S
C605        C606   1.419       .  A
C605        N610   1.437       .  S
C606        C607   1.413       .  A
C607        C608   1.405       .  A
C607        H611   1.083       .  S
C608        N612   1.438   1_655  S
N610        H613   1.045       .  S
N610        H614   1.046       .  S
N612        H615   1.045       .  S
N612        H616   1.045       .  S
C621        C622   1.412       .  A
C621        C626   1.407       .  A
C622        C623   1.398       .  A
C622        N627   1.435       .  S
C623        C624   1.398       .  A
C623        H628   1.084       .  S
C624        C629   1.468       .  S
C624        C625   1.406       .  A
C625        C626   1.401       .  A
C625        N630   1.438       .  S
C626        H631   1.084       .  S
N627        H647   1.045       .  S
N627        H648   1.046       .  S
C629        C632   1.402       .  A
C629        C636   1.406       .  A
N630        H645   1.046       .  S
N630        H646   1.045       .  S
C632        C633   1.402       .  A
C632        H637   1.084       .  S
C633        C634   1.409       .  A
C633        N638   1.438       .  S
C634        C635   1.404       .  A
C635        C636   1.397       .  A
C635        H639   1.084       .  S
C636        N640   1.438       .  S
N638        H641   1.046       .  S
N638        H642   1.046       .  S
N640        H643   1.045       .  S
N640        H644   1.046       .  S
C649        C650   1.413       .  A
C649        C654   1.406       .  A
C650        C651   1.400       .  A
C650        N655   1.432       .  S
C651        C652   1.398       .  A
C651        H656   1.084       .  S
C652        C657   1.483       .  S
C652        C653   1.412       .  A
C653        C654   1.414       .  A
C653        N658   1.438       .  S
C654        H659   1.083       .  S
N655        H675   1.046       .  S
N655        H676   1.045       .  S
C657        C660   1.404       .  A
C657        C664   1.407       .  A
N658        H673   1.045       .  S
N658        H674   1.045       .  S
C660        C661   1.412       .  A
C660        H665   1.084       .  S
C661        C662   1.416       .  A
C661        N666   1.437       .  S
C662        C663   1.409       .  A
C663        C664   1.403       .  A
C663        H667   1.083       .  S
C664        N668   1.439       .  S
N666        H669   1.046       .  S
N666        H670   1.046       .  S
N668        H671   1.045       .  S
N668        H672   1.044       .  S
C677        C678   1.420       .  A
C677        C682   1.405       .  A
C678        C679   1.399       .  A
C678        N683   1.439       .  S
C679        C680   1.397       .  A
C679        H684   1.084       .  S
C680        C685   1.475       .  S
C680        C681   1.409       .  A
C681        C682   1.405       .  A
C681        N686   1.438       .  S
C682        H687   1.083       .  S
N683        H703   1.045       .  S
N683        H704   1.046       .  S
C685        C688   1.402       .  A
C685        C692   1.409       .  A
N686        H701   1.046       .  S
N686        H702   1.045       .  S
C688        C689   1.402       .  A
C688        H693   1.084       .  S
C689        C690   1.411       .  A
C689        N694   1.438       .  S
C690        C691   1.403       .  A
C691        C692   1.400       .  A
C691        H695   1.084       .  S
C692        N696   1.438       .  S
N694        H697   1.046       .  S
N694        H698   1.045       .  S
N696        H699   1.046       .  S
N696        H700   1.045       .  S
C705        C706   1.418       .  A
C705        C710   1.412       .  A
C706        C707   1.419       .  A
C706        N711   1.437       .  S
C707        C708   1.409       .  A
C707        H712   1.083       .  S
C708        C713   1.504       .  S
C708        C709   1.410       .  A
C709        C710   1.408       .  A
C709        N714   1.438       .  S
C710        H715   1.083       .  S
N711        H731   1.045       .  S
N711        H732   1.046       .  S
C713        C716   1.407       .  A
C713        C720   1.411       .  A
N714        H729   1.046       .  S
N714        H730   1.045       .  S
C716        C717   1.416       .  A
C716        H721   1.083       .  S
C717        C718   1.418       .  A
C717        N722   1.437       .  S
C718        C719   1.411       .  A
C719        C720   1.412       .  A
C719        H723   1.083       .  S
C720        N724   1.438       .  S
N722        H725   1.045       .  S
N722        H726   1.046       .  S
N724        H727   1.045       .  S
N724        H728   1.046       .  S
C733        C734   1.419       .  A
C733        C738   1.413       .  A
C734        C735   1.416       .  A
C734        N739   1.437       .  S
C735        C736   1.405       .  A
C735        H740   1.083       .  S
C736        C741   1.494       .  S
C736        C737   1.407       .  A
C737        C738   1.409       .  A
C737        N742   1.438       .  S
C738        H743   1.083       .  S
N739        H759   1.046       .  S
N739        H760   1.045       .  S
C741        C744   1.400       .  A
C741        C748   1.413       .  A
N742        H757   1.045       .  S
N742        H758   1.046       .  S
C744        C745   1.407       .  A
C744        H749   1.084       .  S
C745        C746   1.417       .  A
C745        N750   1.439       .  S
C746        C747   1.407       .  A
C747        C748   1.417       .  A
C747        H751   1.083       .  S
C748        N752   1.437       .  S
N750        H753   1.046       .  S
N750        H754   1.045       .  S
N752        H755   1.045       .  S
N752        H756   1.045       .  S
C761        C762   1.417       .  A
C761        C766   1.409       .  A
C762        C763   1.412       .  A
C762        N767   1.437       .  S
C763        C764   1.406       .  A
C763        H768   1.083       .  S
C764        C769   1.495       .  S
C764        C765   1.410       .  A
C765        C766   1.404       .  A
C765        N770   1.439       .  S
C766        H771   1.083       .  S
N767        H787   1.045       .  S
N767        H788   1.045       .  S
C769        C772   1.405       .  A
C769        C776   1.409       .  A
N770        H785   1.046       .  S
N770        H786   1.046       .  S
C772        C773   1.411       .  A
C772        H777   1.084       .  S
C773        C774   1.420       .  A
C773        N778   1.438       .  S
C774        C775   1.411       .  A
C775        C776   1.406       .  A
C775        H779   1.083       .  S
C776        N780   1.438       .  S
N778        H781   1.046       .  S
N778        H782   1.045       .  S
N780        H783   1.046       .  S
N780        H784   1.046       .  S
C789        C790   1.418       .  A
C789        C794   1.411       .  A
C790        C791   1.413       .  A
C790        N795   1.437       .  S
C791        C792   1.407       .  A
C791        H796   1.084       .  S
C792        C797   1.495   1_545  S
C792        C793   1.409       .  A
C793        C794   1.405       .  A
C793        N798   1.439   1_545  S
C794        H799   1.083       .  S
N795        H815   1.046       .  S
N795        H816   1.046       .  S
C797        C800   1.407       .  A
C797        C804   1.409       .  A
N798        H813   1.045       .  S
N798        H814   1.046       .  S
C800        C801   1.413       .  A
C800        H805   1.083       .  S
C801        C802   1.416       .  A
C801        N806   1.437       .  S
C802        C803   1.411       .  A
C803        C804   1.404       .  A
C803        H807   1.083       .  S
C804        N808   1.439   1_565  S
N806        H809   1.046       .  S
N806        H810   1.045       .  S
N808        H811   1.046       .  S
N808        H812   1.045       .  S
C817        C818   1.415       .  A
C817        C822   1.405       .  A
C818        C819   1.400       .  A
C818        N823   1.433       .  S
C819        C820   1.397       .  A
C819        H824   1.084       .  S
C820        C825   1.482       .  S
C820        C821   1.412       .  A
C821        C822   1.413       .  A
C821        N826   1.437       .  S
C822        H827   1.083       .  S
N823        H843   1.046   1_556  S
N823        H844   1.046       .  S
C825        C828   1.403       .  A
C825        C832   1.408       .  A
N826        H841   1.045       .  S
N826        H842   1.045       .  S
C828        C829   1.412       .  A
C828        H833   1.084       .  S
C829        C830   1.414       .  A
C829        N834   1.437       .  S
C830        C831   1.407       .  A
C831        C832   1.405       .  A
C831        H835   1.084       .  S
C832        N836   1.439       .  S
N834        H837   1.046       .  S
N834        H838   1.045       .  S
N836        H839   1.045       .  S
N836        H840   1.045       .  S
C845        C846   1.416       .  A
C845        C850   1.403       .  A
C846        C847   1.403       .  A
C846        N851   1.439       .  S
C847        C848   1.401       .  A
C847        H852   1.084       .  S
C848        C853   1.476       .  S
C848        C849   1.408       .  A
C849        C850   1.400       .  A
C849        N854   1.438       .  S
C850        H855   1.084       .  S
N851        H871   1.045       .  S
N851        H872   1.046       .  S
C853        C856   1.405       .  A
C853        C860   1.406       .  A
N854        H869   1.045       .  S
N854        H870   1.046       .  S
C856        C857   1.404       .  A
C856        H861   1.084       .  S
C857        C858   1.408       .  A
C857        N862   1.437       .  S
C858        C859   1.407       .  A
C859        C860   1.399       .  A
C859        H863   1.084       .  S
C860        N864   1.438       .  S
N862        H865   1.046       .  S
N862        H866   1.046       .  S
N864        H867   1.046       .  S
N864        H868   1.045       .  S
C873        C874   1.413       .  A
C873        C878   1.407       .  A
C874        C875   1.400       .  A
C874        N879   1.438       .  S
C875        C876   1.400       .  A
C875        H880   1.084       .  S
C876        C881   1.475   1_565  S
C876        C877   1.407   1_565  A
C877        C878   1.406   1_545  A
C877        N882   1.438       .  S
C878        H883   1.084       .  S
N879        H899   1.046       .  S
N879        H900   1.045       .  S
C881        C884   1.401       .  A
C881        C888   1.405       .  A
N882        H897   1.045       .  S
N882        H898   1.046       .  S
C884        C885   1.408       .  A
C884        H889   1.084       .  S
C885        C886   1.417       .  A
C885        N890   1.438       .  S
C886        C887   1.406       .  A
C887        C888   1.398       .  A
C887        H891   1.084       .  S
C888        N892   1.438   1_545  S
N890        H893   1.046       .  S
N890        H894   1.045       .  S
N892        H895   1.046       .  S
N892        H896   1.045       .  S
C901        C902   1.418       .  A
C901        C906   1.411       .  A
C902        C903   1.415       .  A
C902        N907   1.437       .  S
C903        C904   1.408       .  A
C903        H908   1.084       .  S
C904        C909   1.502       .  S
C904        C905   1.410       .  A
C905        C906   1.408       .  A
C905        N910   1.438       .  S
C906        H911   1.083       .  S
N907        H927   1.045       .  S
N907        H928   1.046       .  S
C909        C912   1.409       .  A
C909        C916   1.411       .  A
N910        H925   1.046       .  S
N910        H926   1.045       .  S
C912        C913   1.416       .  A
C912        H917   1.083       .  S
C913        C914   1.415       .  A
C913        N918   1.437       .  S
C914        C915   1.409       .  A
C915        C916   1.406       .  A
C915        H919   1.083       .  S
C916        N920   1.438       .  S
N918        H921   1.046       .  S
N918        H922   1.046       .  S
N920        H923   1.045       .  S
N920        H924   1.046       .  S
C929        C930   1.416       .  A
C929        C934   1.408       .  A
C930        C931   1.414       .  A
C930        N935   1.437       .  S
C931        C932   1.408       .  A
C931        H936   1.083       .  S
C932        C937   1.511       .  S
C932        C933   1.416       .  A
C933        C934   1.413       .  A
C933        N938   1.438       .  S
C934        H939   1.084       .  S
N935        H955   1.046       .  S
N935        H956   1.045       .  S
C937        C940   1.408       .  A
C937        C944   1.417       .  A
N938        H953   1.045       .  S
N938        H954   1.046       .  S
C940        C941   1.412       .  A
C940        H945   1.083       .  S
C941        C942   1.413       .  A
C941        N946   1.438       .  S
C942        C943   1.406       .  A
C943        C944   1.416       .  A
C943        H947   1.084       .  S
C944        N948   1.437       .  S
N946        H949   1.046       .  S
N946        H950   1.045       .  S
N948        H951   1.046       .  S
N948        H952   1.046       .  S
C957        C958   1.411       .  A
C957        C962   1.403       .  A
C958        C959   1.398       .  A
C958        N963   1.438       .  S
C959        C960   1.397       .  A
C959        H964   1.084       .  S
C960        C965   1.461       .  S
C960        C961   1.406       .  A
C961        C962   1.400       .  A
C961        N966   1.438       .  S
C962        H967   1.084       .  S
N963        H983   1.045       .  S
N963        H984   1.046       .  S
C965        C968   1.396       .  A
C965        C972   1.407       .  A
N966        H981   1.046       .  S
N966        H982   1.044       .  S
C968        C969   1.396       .  A
C968        H973   1.084       .  S
C969        C970   1.413       .  A
C969        N974   1.439       .  S
C970        C971   1.404       .  A
C971        C972   1.403       .  A
C971        H975   1.084       .  S
C972        N976   1.438       .  S
N974        H977   1.046       .  S
N974        H978   1.046       .  S
N976        H979   1.047       .  S
N976        H980   1.044       .  S
C985        C986   1.415       .  A
C985        C990   1.406       .  A
C986        C987   1.407       .  A
C986        N991   1.439       .  S
C987        C988   1.403       .  A
C987        H992   1.084       .  S
C988        C993   1.498       .  S
C988        C989   1.414       .  A
C989        C990   1.416       .  A
C989        N994   1.437       .  S
C990        H995   1.083       .  S
N991       H1011   1.046       .  S
N991       H1012   1.046       .  S
C993        C996   1.402       .  A
C993       C1000   1.412       .  A
N994       H1009   1.045       .  S
N994       H1010   1.046       .  S
C996        C997   1.411       .  A
C996       H1001   1.084       .  S
C997        C998   1.422       .  A
C997       N1002   1.438       .  S
C998        C999   1.408       .  A
C999       C1000   1.413       .  A
C999       H1003   1.083       .  S
C1000      N1004   1.437       .  S
N1002      H1005   1.045       .  S
N1002      H1006   1.046       .  S
N1004      H1007   1.046       .  S
N1004      H1008   1.046       .  S
C1013      C1014   1.414       .  A
C1013      C1018   1.405   1_556  A
C1014      C1015   1.393       .  A
C1014      N1019   1.434       .  S
C1015      C1016   1.395       .  A
C1015      H1020   1.084   1_565  S
C1016      C1021   1.465   1_566  S
C1016      C1017   1.408   1_556  A
C1017      C1018   1.404       .  A
C1017      N1022   1.437       .  S
C1018      H1023   1.084       .  S
N1019      H1039   1.046       .  S
N1019      H1040   1.046   1_565  S
C1021      C1024   1.401       .  A
C1021      C1028   1.406       .  A
N1022      H1037   1.046       .  S
N1022      H1038   1.046       .  S
C1024      C1025   1.401       .  A
C1024      H1029   1.084   1_544  S
C1025      C1026   1.409       .  A
C1025      N1030   1.438   1_554  S
C1026      C1027   1.403       .  A
C1027      C1028   1.398       .  A
C1027      H1031   1.084       .  S
C1028      N1032   1.438       .  S
N1030      H1033   1.046       .  S
N1030      H1034   1.045   1_545  S
N1032      H1035   1.046       .  S
N1032      H1036   1.046       .  S
C1041      C1042   1.413       .  A
C1041      C1046   1.405       .  A
C1042      C1043   1.411       .  A
C1042      N1047   1.438       .  S
C1043      C1044   1.408       .  A
C1043      H1048   1.083       .  S
C1044      C1049   1.508       .  S
C1044      C1045   1.417       .  A
C1045      C1046   1.412       .  A
C1045      N1050   1.437       .  S
C1046      H1051   1.084   1_556  S
N1047      H1067   1.046       .  S
N1047      H1068   1.045       .  S
C1049      C1052   1.407       .  A
C1049      C1056   1.417       .  A
N1050      H1065   1.045       .  S
N1050      H1066   1.046       .  S
C1052      C1053   1.410       .  A
C1052      H1057   1.083       .  S
C1053      C1054   1.415       .  A
C1053      N1058   1.438       .  S
C1054      C1055   1.405       .  A
C1055      C1056   1.414       .  A
C1055      H1059   1.084       .  S
C1056      N1060   1.437       .  S
N1058      H1061   1.045       .  S
N1058      H1062   1.046       .  S
N1060      H1063   1.045       .  S
N1060      H1064   1.046       .  S
C1069      C1070   1.422       .  A
C1069      C1074   1.412       .  A
C1070      C1071   1.405       .  A
C1070      N1075   1.433       .  S
C1071      C1072   1.398       .  A
C1071      H1076   1.084   1_545  S
C1072      C1077   1.497   1_545  S
C1072      C1073   1.414       .  A
C1073      C1074   1.419       .  A
C1073      N1078   1.438       .  S
C1074      H1079   1.083       .  S
N1075      H1095   1.046       .  S
N1075      H1096   1.046   1_545  S
C1077      C1080   1.407       .  A
C1077      C1084   1.409       .  A
N1078      H1093   1.047       .  S
N1078      H1094   1.042       .  S
C1080      C1081   1.419       .  A
C1080      H1085   1.083       .  S
C1081      C1082   1.419       .  A
C1081      N1086   1.437       .  S
C1082      C1083   1.412       .  A
C1083      C1084   1.408       .  A
C1083      H1087   1.083       .  S
C1084      N1088   1.439   1_565  S
N1086      H1089   1.046       .  S
N1086      H1090   1.045       .  S
N1088      H1091   1.046       .  S
N1088      H1092   1.043       .  S
C1097      C1098   1.417       .  A
C1097      C1102   1.404       .  A
C1098      C1099   1.396       .  A
C1098      N1103   1.434       .  S
C1099      C1100   1.402       .  A
C1099      H1104   1.084       .  S
C1100      C1105   1.490       .  S
C1100      C1101   1.414       .  A
C1101      C1102   1.412       .  A
C1101      N1106   1.437       .  S
C1102      H1107   1.084       .  S
N1103      H1123   1.042       .  S
N1103      H1124   1.048       .  S
C1105      C1108   1.401       .  A
C1105      C1112   1.412       .  A
N1106      H1121   1.046       .  S
N1106      H1122   1.046       .  S
C1108      C1109   1.405       .  A
C1108      H1113   1.084       .  S
C1109      C1110   1.418       .  A
C1109      N1114   1.432       .  S
C1110      C1111   1.408       .  A
C1111      C1112   1.408       .  A
C1111      H1115   1.083       .  S
C1112      N1116   1.438       .  S
N1114      H1117   1.046       .  S
N1114      H1118   1.045       .  S
N1116      H1119   1.045   1_554  S
N1116      H1120   1.046       .  S
C1125      C1126   1.412       .  A
C1125      C1130   1.402       .  A
C1126      C1127   1.393       .  A
C1126      N1131   1.439       .  S
C1127      C1128   1.396       .  A
C1127      H1132   1.084       .  S
C1128      C1133   1.461       .  S
C1128      C1129   1.407       .  A
C1129      C1130   1.400       .  A
C1129      N1134   1.438       .  S
C1130      H1135   1.084       .  S
N1131      H1151   1.045       .  S
N1131      H1152   1.046       .  S
C1133      C1136   1.399       .  A
C1133      C1140   1.404       .  A
N1134      H1149   1.045       .  S
N1134      H1150   1.046       .  S
C1136      C1137   1.399       .  A
C1136      H1141   1.084       .  S
C1137      C1138   1.414       .  A
C1137      N1142   1.438       .  S
C1138      C1139   1.403       .  A
C1139      C1140   1.394       .  A
C1139      H1143   1.082       .  S
C1140      N1144   1.438       .  S
N1142      H1145   1.045       .  S
N1142      H1146   1.046       .  S
N1144      H1147   1.045       .  S
N1144      H1148   1.046       .  S
C1153      C1154   1.412       .  A
C1153      C1158   1.403       .  A
C1154      C1155   1.400       .  A
C1154      N1159   1.439       .  S
C1155      C1156   1.399       .  A
C1155      H1160   1.084       .  S
C1156      C1161   1.467       .  S
C1156      C1157   1.406       .  A
C1157      C1158   1.399       .  A
C1157      N1162   1.438       .  S
C1158      H1163   1.084       .  S
N1159      H1179   1.046       .  S
N1159      H1180   1.046       .  S
C1161      C1164   1.396       .  A
C1161      C1168   1.410       .  A
N1162      H1177   1.046       .  S
N1162      H1178   1.046       .  S
C1164      C1165   1.396       .  A
C1164      H1169   1.084       .  S
C1165      C1166   1.412       .  A
C1165      N1170   1.439       .  S
C1166      C1167   1.398       .  A
C1167      C1168   1.403       .  A
C1167      H1171   1.084       .  S
C1168      N1172   1.437       .  S
N1170      H1173   1.046       .  S
N1170      H1174   1.044       .  S
N1172      H1175   1.046       .  S
N1172      H1176   1.046       .  S
C1181      C1182   1.417       .  A
C1181      C1186   1.408       .  A
C1182      C1183   1.402       .  A
C1182      N1187   1.433       .  S
C1183      C1184   1.399       .  A
C1183      H1188   1.084       .  S
C1184      C1189   1.487   1_565  S
C1184      C1185   1.412       .  A
C1185      C1186   1.414       .  A
C1185      N1190   1.438       .  S
C1186      H1191   1.083       .  S
N1187      H1207   1.046       .  S
N1187      H1208   1.045       .  S
C1189      C1192   1.403       .  A
C1189      C1196   1.408       .  A
N1190      H1205   1.046       .  S
N1190      H1206   1.043       .  S
C1192      C1193   1.413       .  A
C1192      H1197   1.084       .  S
C1193      C1194   1.418       .  A
C1193      N1198   1.437       .  S
C1194      C1195   1.411       .  A
C1195      C1196   1.406       .  A
C1195      H1199   1.083       .  S
C1196      N1200   1.439       .  S
N1198      H1201   1.045       .  S
N1198      H1202   1.046       .  S
N1200      H1203   1.045       .  S
N1200      H1204   1.044       .  S
C1209      C1210   1.417       .  A
C1209      C1214   1.407       .  A
C1210      C1211   1.398       .  A
C1210      N1215   1.434       .  S
C1211      C1212   1.396       .  A
C1211      H1216   1.084       .  S
C1212      C1217   1.483   1_655  S
C1212      C1213   1.412       .  A
C1213      C1214   1.415       .  A
C1213      N1218   1.437       .  S
C1214      H1219   1.083       .  S
N1215      H1235   1.045       .  S
N1215      H1236   1.046       .  S
C1217      C1220   1.403       .  A
C1217      C1224   1.406       .  A
N1218      H1233   1.046       .  S
N1218      H1234   1.045       .  S
C1220      C1221   1.413       .  A
C1220      H1225   1.084       .  S
C1221      C1222   1.417       .  A
C1221      N1226   1.437       .  S
C1222      C1223   1.408       .  A
C1223      C1224   1.403       .  A
C1223      H1227   1.084       .  S
C1224      N1228   1.438       .  S
N1226      H1229   1.045       .  S
N1226      H1230   1.046       .  S
N1228      H1231   1.046       .  S
N1228      H1232   1.045       .  S
C1237      C1238   1.408       .  A
C1237      C1242   1.397       .  A
C1238      C1239   1.393       .  A
C1238      N1243   1.439       .  S
C1239      C1240   1.397       .  A
C1239      H1244   1.084       .  S
C1240      C1245   1.464       .  S
C1240      C1241   1.411       .  A
C1241      C1242   1.401       .  A
C1241      N1246   1.438       .  S
C1242      H1247   1.084       .  S
N1243      H1263   1.046       .  S
N1243      H1264   1.046       .  S
C1245      C1248   1.399       .  A
C1245      C1252   1.405       .  A
N1246      H1261   1.046       .  S
N1246      H1262   1.046       .  S
C1248      C1249   1.400       .  A
C1248      H1253   1.084       .  S
C1249      C1250   1.414       .  A
C1249      N1254   1.436       .  S
C1250      C1251   1.406       .  A
C1251      C1252   1.395       .  A
C1251      H1255   1.084       .  S
C1252      N1256   1.439       .  S
N1254      H1257   1.046       .  S
N1254      H1258   1.045       .  S
N1256      H1259   1.045       .  S
N1256      H1260   1.046       .  S
C1265      C1266   1.425       .  A
C1265      C1270   1.409       .  A
C1266      C1267   1.410       .  A
C1266      N1271   1.439       .  S
C1267      C1268   1.401       .  A
C1267      H1272   1.084       .  S
C1268      C1273   1.502       .  S
C1268      C1269   1.414       .  A
C1269      C1270   1.415       .  A
C1269      N1274   1.437       .  S
C1270      H1275   1.083       .  S
N1271      H1291   1.045       .  S
N1271      H1292   1.046       .  S
C1273      C1276   1.400       .  A
C1273      C1280   1.414       .  A
N1274      H1289   1.046       .  S
N1274      H1290   1.045       .  S
C1276      C1277   1.409       .  A
C1276      H1281   1.084       .  S
C1277      C1278   1.425       .  A
C1277      N1282   1.438       .  S
C1278      C1279   1.411       .  A
C1279      C1280   1.416       .  A
C1279      H1283   1.083       .  S
C1280      N1284   1.437       .  S
N1282      H1285   1.046       .  S
N1282      H1286   1.045       .  S
N1284      H1287   1.045       .  S
N1284      H1288   1.046       .  S
C1293      C1294   1.418       .  A
C1293      C1298   1.409       .  A
C1294      C1295   1.410       .  A
C1294      N1299   1.438       .  S
C1295      C1296   1.405       .  A
C1295      H1300   1.083       .  S
C1296      C1301   1.498       .  S
C1296      C1297   1.412       .  A
C1297      C1298   1.408       .  A
C1297      N1302   1.438       .  S
C1298      H1303   1.083       .  S
N1299      H1319   1.046       .  S
N1299      H1320   1.046       .  S
C1301      C1304   1.406       .  A
C1301      C1308   1.414       .  A
N1302      H1317   1.046       .  S
N1302      H1318   1.045       .  S
C1304      C1305   1.408       .  A
C1304      H1309   1.083       .  S
C1305      C1306   1.413       .  A
C1305      N1310   1.438       .  S
C1306      C1307   1.405       .  A
C1307      C1308   1.411       .  A
C1307      H1311   1.084       .  S
C1308      N1312   1.437       .  S
N1310      H1313   1.045       .  S
N1310      H1314   1.045       .  S
N1312      H1315   1.045       .  S
N1312      H1316   1.046       .  S
C1321      C1322   1.411       .  A
C1321      C1326   1.405       .  A
C1322      C1323   1.408       .  A
C1322      N1327   1.432       .  S
C1323      C1324   1.407       .  A
C1323      H1328   1.084       .  S
C1324      C1329   1.494       .  S
C1324      C1325   1.411       .  A
C1325      C1326   1.406       .  A
C1325      N1330   1.437       .  S
C1326      H1331   1.084       .  S
N1327      H1347   1.046       .  S
N1327      H1348   1.045       .  S
C1329      C1332   1.405       .  A
C1329      C1336   1.410       .  A
N1330      H1345   1.046       .  S
N1330      H1346   1.045       .  S
C1332      C1333   1.408       .  A
C1332      H1337   1.084       .  S
C1333      C1334   1.415       .  A
C1333      N1338   1.438       .  S
C1334      C1335   1.407       .  A
C1335      C1336   1.407       .  A
C1335      H1339   1.081       .  S
C1336      N1340   1.438       .  S
N1338      H1341   1.046       .  S
N1338      H1342   1.046       .  S
N1340      H1343   1.046       .  S
N1340      H1344   1.045       .  S
C1349      C1350   1.417       .  A
C1349      C1354   1.411       .  A
C1350      C1351   1.413       .  A
C1350      N1355   1.437       .  S
C1351      C1352   1.409       .  A
C1351      H1356   1.083       .  S
C1352      C1357   1.506       .  S
C1352      C1353   1.413       .  A
C1353      C1354   1.410       .  A
C1353      N1358   1.438       .  S
C1354      H1359   1.083       .  S
N1355      H1375   1.046       .  S
N1355      H1376   1.045       .  S
C1357      C1360   1.410       .  A
C1357      C1364   1.413       .  A
N1358      H1373   1.047       .  S
N1358      H1374   1.044       .  S
C1360      C1361   1.418       .  A
C1360      H1365   1.083       .  S
C1361      C1362   1.419       .  A
C1361      N1366   1.437       .  S
C1362      C1363   1.411       .  A
C1363      C1364   1.405       .  A
C1363      H1367   1.083       .  S
C1364      N1368   1.439       .  S
N1366      H1369   1.046       .  S
N1366      H1370   1.045       .  S
N1368      H1371   1.045       .  S
N1368      H1372   1.046       .  S
C1377      C1378   1.420       .  A
C1377      C1382   1.408       .  A
C1378      C1379   1.404       .  A
C1378      N1383   1.439       .  S
C1379      C1380   1.401       .  A
C1379      H1384   1.084       .  S
C1380      C1385   1.496       .  S
C1380      C1381   1.414       .  A
C1381      C1382   1.415       .  A
C1381      N1386   1.437       .  S
C1382      H1387   1.083       .  S
N1383      H1403   1.046       .  S
N1383      H1404   1.046       .  S
C1385      C1388   1.403       .  A
C1385      C1392   1.414       .  A
N1386      H1401   1.045       .  S
N1386      H1402   1.046       .  S
C1388      C1389   1.409       .  A
C1388      H1393   1.083       .  S
C1389      C1390   1.418       .  A
C1389      N1394   1.438   1_554  S
C1390      C1391   1.406       .  A
C1391      C1392   1.409       .  A
C1391      H1395   1.083       .  S
C1392      N1396   1.438       .  S
N1394      H1397   1.046       .  S
N1394      H1398   1.046       .  S
N1396      H1399   1.046       .  S
N1396      H1400   1.045       .  S
C1405      C1406   1.407       .  A
C1405      C1410   1.399       .  A
C1406      C1407   1.402       .  A
C1406      N1411   1.438       .  S
C1407      C1408   1.404       .  A
C1407      H1412   1.084       .  S
C1408      C1413   1.472       .  S
C1408      C1409   1.409       .  A
C1409      C1410   1.396       .  A
C1409      N1414   1.438       .  S
C1410      H1415   1.084       .  S
N1411      H1431   1.046       .  S
N1411      H1432   1.046       .  S
C1413      C1416   1.397       .  A
C1413      C1420   1.407       .  A
N1414      H1429   1.046       .  S
N1414      H1430   1.046       .  S
C1416      C1417   1.395       .  A
C1416      H1421   1.084       .  S
C1417      C1418   1.420       .  A
C1417      N1422   1.439       .  S
C1418      C1419   1.407       .  A
C1419      C1420   1.403       .  A
C1419      H1423   1.083       .  S
C1420      N1424   1.438       .  S
N1422      H1425   1.046       .  S
N1422      H1426   1.046       .  S
N1424      H1427   1.045       .  S
N1424      H1428   1.046       .  S
C1433      C1434   1.412       .  A
C1433      C1438   1.406       .  A
C1434      C1435   1.409       .  A
C1434      N1439   1.438       .  S
C1435      C1436   1.406       .  A
C1435      H1440   1.083       .  S
C1436      C1441   1.494       .  S
C1436      C1437   1.411       .  A
C1437      C1438   1.407       .  A
C1437      N1442   1.438       .  S
C1438      H1443   1.084       .  S
N1439      H1459   1.046   1_556  S
N1439      H1460   1.045   1_556  S
C1441      C1444   1.406       .  A
C1441      C1448   1.410       .  A
N1442      H1457   1.046       .  S
N1442      H1458   1.046       .  S
C1444      C1445   1.410       .  A
C1444      H1449   1.084       .  S
C1445      C1446   1.414       .  A
C1445      N1450   1.438       .  S
C1446      C1447   1.407       .  A
C1447      C1448   1.407       .  A
C1447      H1451   1.082       .  S
C1448      N1452   1.438       .  S
N1450      H1453   1.046       .  S
N1450      H1454   1.046       .  S
N1452      H1455   1.045   1_556  S
N1452      H1456   1.046       .  S
C1461      C1462   1.413       .  A
C1461      C1466   1.403       .  A
C1462      C1463   1.410       .  A
C1462      N1467   1.438       .  S
C1463      C1464   1.404       .  A
C1463      H1468   1.084       .  S
C1464      C1469   1.489       .  S
C1464      C1465   1.412       .  A
C1465      C1466   1.406       .  A
C1465      N1470   1.438       .  S
C1466      H1471   1.084       .  S
N1467      H1487   1.046       .  S
N1467      H1488   1.046       .  S
C1469      C1472   1.402       .  A
C1469      C1476   1.411       .  A
N1470      H1485   1.045       .  S
N1470      H1486   1.046       .  S
C1472      C1473   1.407       .  A
C1472      H1477   1.084       .  S
C1473      C1474   1.417       .  A
C1473      N1478   1.438       .  S
C1474      C1475   1.407       .  A
C1475      C1476   1.409       .  A
C1475      H1479   1.083       .  S
C1476      N1480   1.438       .  S
N1478      H1481   1.045       .  S
N1478      H1482   1.046       .  S
N1480      H1483   1.046   1_556  S
N1480      H1484   1.046       .  S
C1489      C1490   1.406       .  A
C1489      C1494   1.403       .  A
C1490      C1491   1.400       .  A
C1490      N1495   1.437       .  S
C1491      C1492   1.400       .  A
C1491      H1496   1.084       .  S
C1492      C1497   1.463       .  S
C1492      C1493   1.406       .  A
C1493      C1494   1.400       .  A
C1493      N1498   1.438       .  S
C1494      H1499   1.084       .  S
N1495      H1515   1.046       .  S
N1495      H1516   1.045       .  S
C1497      C1500   1.399       .  A
C1497      C1504   1.405       .  A
N1498      H1513   1.046       .  S
N1498      H1514   1.045       .  S
C1500      C1501   1.400       .  A
C1500      H1505   1.084       .  S
C1501      C1502   1.410       .  A
C1501      N1506   1.438       .  S
C1502      C1503   1.403       .  A
C1503      C1504   1.400       .  A
C1503      H1507   1.084       .  S
C1504      N1508   1.438       .  S
N1506      H1509   1.046       .  S
N1506      H1510   1.045       .  S
N1508      H1511   1.045       .  S
N1508      H1512   1.046       .  S
C1517      C1518   1.405       .  A
C1517      C1522   1.401       .  A
C1518      C1519   1.403       .  A
C1518      N1523   1.437       .  S
C1519      C1520   1.403       .  A
C1519      H1524   1.084       .  S
C1520      C1525   1.460       .  S
C1520      C1521   1.403       .  A
C1521      C1522   1.394       .  A
C1521      N1526   1.438       .  S
C1522      H1527   1.085       .  S
N1523      H1543   1.045       .  S
N1523      H1544   1.046       .  S
C1525      C1528   1.398       .  A
C1525      C1532   1.405       .  A
N1526      H1541   1.046       .  S
N1526      H1542   1.046       .  S
C1528      C1529   1.400       .  A
C1528      H1533   1.084       .  S
C1529      C1530   1.412       .  A
C1529      N1534   1.438       .  S
C1530      C1531   1.402       .  A
C1531      C1532   1.397       .  A
C1531      H1535   1.084       .  S
C1532      N1536   1.438       .  S
N1534      H1537   1.046       .  S
N1534      H1538   1.045       .  S
N1536      H1539   1.045       .  S
N1536      H1540   1.046       .  S
C1545      C1546   1.411       .  A
C1545      C1550   1.402       .  A
C1546      C1547   1.409       .  A
C1546      N1551   1.438       .  S
C1547      C1548   1.403       .  A
C1547      H1552   1.084       .  S
C1548      C1553   1.486   1_565  S
C1548      C1549   1.413       .  A
C1549      C1550   1.407       .  A
C1549      N1554   1.439       .  S
C1550      H1555   1.083       .  S
N1551      H1571   1.046       .  S
N1551      H1572   1.045       .  S
C1553      C1556   1.404       .  A
C1553      C1560   1.407       .  A
N1554      H1569   1.046       .  S
N1554      H1570   1.042   1_565  S
C1556      C1557   1.412       .  A
C1556      H1561   1.084       .  S
C1557      C1558   1.415       .  A
C1557      N1562   1.437       .  S
C1558      C1559   1.408       .  A
C1559      C1560   1.405       .  A
C1559      H1563   1.079       .  S
C1560      N1564   1.439       .  S
N1562      H1565   1.046       .  S
N1562      H1566   1.045       .  S
N1564      H1567   1.046       .  S
N1564      H1568   1.043       .  S
C1573      C1574   1.414       .  A
C1573      C1578   1.403       .  A
C1574      C1575   1.404       .  A
C1574      N1579   1.438       .  S
C1575      C1576   1.402       .  A
C1575      H1580   1.084       .  S
C1576      C1581   1.495   1_655  S
C1576      C1577   1.416       .  A
C1577      C1578   1.413       .  A
C1577      N1582   1.437       .  S
C1578      H1583   1.083       .  S
N1579      H1599   1.046       .  S
N1579      H1600   1.045       .  S
C1581      C1584   1.400       .  A
C1581      C1588   1.416       .  A
N1582      H1597   1.045       .  S
N1582      H1598   1.046       .  S
C1584      C1585   1.401       .  A
C1584      H1589   1.084       .  S
C1585      C1586   1.418       .  A
C1585      N1590   1.433       .  S
C1586      C1587   1.406       .  A
C1587      C1588   1.412       .  A
C1587      H1591   1.083       .  S
C1588      N1592   1.437       .  S
N1590      H1593   1.046       .  S
N1590      H1594   1.046       .  S
N1592      H1595   1.046       .  S
N1592      H1596   1.045   1_455  S
C1601      C1602   1.408       .  A
C1601      C1606   1.400       .  A
C1602      C1603   1.399       .  A
C1602      N1607   1.438       .  S
C1603      C1604   1.399       .  A
C1603      H1608   1.084       .  S
C1604      C1609   1.460       .  S
C1604      C1605   1.406       .  A
C1605      C1606   1.398       .  A
C1605      N1610   1.438       .  S
C1606      H1611   1.084       .  S
N1607      H1627   1.045       .  S
N1607      H1628   1.046       .  S
C1609      C1612   1.399       .  A
C1609      C1616   1.403       .  A
N1610      H1625   1.046       .  S
N1610      H1626   1.045       .  S
C1612      C1613   1.400       .  A
C1612      H1617   1.084       .  S
C1613      C1614   1.411       .  A
C1613      N1618   1.438       .  S
C1614      C1615   1.407       .  A
C1615      C1616   1.397       .  A
C1615      H1619   1.084       .  S
C1616      N1620   1.439       .  S
N1618      H1621   1.045       .  S
N1618      H1622   1.046       .  S
N1620      H1623   1.046       .  S
N1620      H1624   1.045       .  S
C1629      C1630   1.413       .  A
C1629      C1634   1.407       .  A
C1630      C1631   1.416       .  A
C1630      N1635   1.437       .  S
C1631      C1632   1.411       .  A
C1631      H1636   1.083       .  S
C1632      C1637   1.512       .  S
C1632      C1633   1.416       .  A
C1633      C1634   1.412       .  A
C1633      N1638   1.438       .  S
C1634      H1639   1.084   1_556  S
N1635      H1655   1.045       .  S
N1635      H1656   1.046       .  S
C1637      C1640   1.410       .  A
C1637      C1644   1.417       .  A
N1638      H1653   1.046       .  S
N1638      H1654   1.045       .  S
C1640      C1641   1.413       .  A
C1640      H1645   1.083       .  S
C1641      C1642   1.412       .  A
C1641      N1646   1.438       .  S
C1642      C1643   1.405       .  A
C1643      C1644   1.414       .  A
C1643      H1647   1.084       .  S
C1644      N1648   1.437       .  S
N1646      H1649   1.045       .  S
N1646      H1650   1.046       .  S
N1648      H1651   1.045       .  S
N1648      H1652   1.046       .  S
C1657      C1658   1.412       .  A
C1657      C1662   1.405       .  A
C1658      C1659   1.399       .  A
C1658      N1663   1.437       .  S
C1659      C1660   1.398   1_556  A
C1659      H1664   1.084   1_556  S
C1660      C1665   1.464       .  S
C1660      C1661   1.405       .  A
C1661      C1662   1.399   1_554  A
C1661      N1666   1.438       .  S
C1662      H1667   1.084       .  S
N1663      H1683   1.045       .  S
N1663      H1684   1.046       .  S
C1665      C1668   1.397       .  A
C1665      C1672   1.410   1_554  A
N1666      H1681   1.046       .  S
N1666      H1682   1.046   1_554  S
C1668      C1669   1.396       .  A
C1668      H1673   1.084       .  S
C1669      C1670   1.409       .  A
C1669      N1674   1.439       .  S
C1670      C1671   1.397   1_554  A
C1671      C1672   1.402       .  A
C1671      H1675   1.084       .  S
C1672      N1676   1.437       .  S
N1674      H1677   1.046       .  S
N1674      H1678   1.045       .  S
N1676      H1679   1.046       .  S
N1676      H1680   1.046       .  S
C1685      C1686   1.415       .  A
C1685      C1690   1.408       .  A
C1686      C1687   1.411       .  A
C1686      N1691   1.437       .  S
C1687      C1688   1.404       .  A
C1687      H1692   1.084       .  S
C1688      C1693   1.485       .  S
C1688      C1689   1.407       .  A
C1689      C1690   1.406       .  A
C1689      N1694   1.439       .  S
C1690      H1695   1.080       .  S
N1691      H1711   1.045       .  S
N1691      H1712   1.046       .  S
C1693      C1696   1.402       .  A
C1693      C1700   1.413       .  A
N1694      H1709   1.046   1_554  S
N1694      H1710   1.043   1_554  S
C1696      C1697   1.409       .  A
C1696      H1701   1.084       .  S
C1697      C1698   1.412       .  A
C1697      N1702   1.438       .  S
C1698      C1699   1.403       .  A
C1699      C1700   1.408       .  A
C1699      H1703   1.084       .  S
C1700      N1704   1.439       .  S
N1702      H1705   1.046       .  S
N1702      H1706   1.045       .  S
N1704      H1707   1.046       .  S
N1704      H1708   1.043       .  S
C1713      C1714   1.411       .  A
C1713      C1718   1.405       .  A
C1714      C1715   1.409       .  A
C1714      N1719   1.431       .  S
C1715      C1716   1.405       .  A
C1715      H1720   1.084       .  S
C1716      C1721   1.496       .  S
C1716      C1717   1.422       .  A
C1717      C1718   1.407       .  A
C1717      N1722   1.440       .  S
C1718      H1723   1.084       .  S
N1719      H1739   1.046       .  S
N1719      H1740   1.045       .  S
C1721      C1724   1.405       .  A
C1721      C1728   1.412       .  A
N1722      H1737   1.046       .  S
N1722      H1738   1.043       .  S
C1724      C1725   1.412       .  A
C1724      H1729   1.084       .  S
C1725      C1726   1.415       .  A
C1725      N1730   1.437       .  S
C1726      C1727   1.408       .  A
C1727      C1728   1.410       .  A
C1727      H1731   1.084       .  S
C1728      N1732   1.438       .  S
N1730      H1733   1.045       .  S
N1730      H1734   1.046       .  S
N1732      H1735   1.045       .  S
N1732      H1736   1.044       .  S
C1741      C1742   1.413       .  A
C1741      C1746   1.405       .  A
C1742      C1743   1.413       .  A
C1742      N1747   1.438       .  S
C1743      C1744   1.409       .  A
C1743      H1748   1.083       .  S
C1744      C1749   1.505       .  S
C1744      C1745   1.415       .  A
C1745      C1746   1.410       .  A
C1745      N1750   1.438       .  S
C1746      H1751   1.084       .  S
N1747      H1767   1.046       .  S
N1747      H1768   1.045       .  S
C1749      C1752   1.409       .  A
C1749      C1756   1.415       .  A
N1750      H1765   1.045       .  S
N1750      H1766   1.046       .  S
C1752      C1753   1.411       .  A
C1752      H1757   1.083       .  S
C1753      C1754   1.411       .  A
C1753      N1758   1.438       .  S
C1754      C1755   1.405       .  A
C1755      C1756   1.412       .  A
C1755      H1759   1.084       .  S
C1756      N1760   1.437       .  S
N1758      H1761   1.046       .  S
N1758      H1762   1.045       .  S
N1760      H1763   1.046       .  S
N1760      H1764   1.045       .  S
C1769      C1770   1.410       .  A
C1769      C1774   1.404       .  A
C1770      C1771   1.410       .  A
C1770      N1775   1.438       .  S
C1771      C1772   1.408       .  A
C1771      H1776   1.083       .  S
C1772      C1777   1.502       .  S
C1772      C1773   1.416       .  A
C1773      C1774   1.410       .  A
C1773      N1778   1.438       .  S
C1774      H1779   1.084       .  S
N1775      H1795   1.045       .  S
N1775      H1796   1.046       .  S
C1777      C1780   1.408       .  A
C1777      C1784   1.415       .  A
N1778      H1793   1.046       .  S
N1778      H1794   1.045       .  S
C1780      C1781   1.409       .  A
C1780      H1785   1.083       .  S
C1781      C1782   1.411       .  A
C1781      N1786   1.438       .  S
C1782      C1783   1.404       .  A
C1783      C1784   1.411       .  A
C1783      H1787   1.084       .  S
C1784      N1788   1.437       .  S
N1786      H1789   1.046       .  S
N1786      H1790   1.046       .  S
N1788      H1791   1.045       .  S
N1788      H1792   1.046       .  S
C1797      C1798   1.407       .  A
C1797      C1802   1.404       .  A
C1798      C1799   1.406       .  A
C1798      N1803   1.437       .  S
C1799      C1800   1.404       .  A
C1799      H1804   1.084       .  S
C1800      C1805   1.465       .  S
C1800      C1801   1.403       .  A
C1801      C1802   1.395       .  A
C1801      N1806   1.439       .  S
C1802      H1807   1.084       .  S
N1803      H1823   1.046       .  S
N1803      H1824   1.045       .  S
C1805      C1808   1.400       .  A
C1805      C1812   1.406       .  A
N1806      H1821   1.046       .  S
N1806      H1822   1.045       .  S
C1808      C1809   1.399       .  A
C1808      H1813   1.084       .  S
C1809      C1810   1.408       .  A
C1809      N1814   1.438       .  S
C1810      C1811   1.403       .  A
C1811      C1812   1.401       .  A
C1811      H1815   1.084       .  S
C1812      N1816   1.438       .  S
N1814      H1817   1.046       .  S
N1814      H1818   1.046       .  S
N1816      H1819   1.045       .  S
N1816      H1820   1.046       .  S
C1825      C1826   1.410       .  A
C1825      C1830   1.400       .  A
C1826      C1827   1.396       .  A
C1826      N1831   1.439       .  S
C1827      C1828   1.396       .  A
C1827      H1832   1.084       .  S
C1828      C1833   1.457       .  S
C1828      C1829   1.407       .  A
C1829      C1830   1.399       .  A
C1829      N1834   1.438       .  S
C1830      H1835   1.084       .  S
N1831      H1851   1.045       .  S
N1831      H1852   1.046       .  S
C1833      C1836   1.397       .  A
C1833      C1840   1.404       .  A
N1834      H1849   1.046       .  S
N1834      H1850   1.045       .  S
C1836      C1837   1.398       .  A
C1836      H1841   1.084       .  S
C1837      C1838   1.411       .  A
C1837      N1842   1.438       .  S
C1838      C1839   1.404       .  A
C1839      C1840   1.397       .  A
C1839      H1843   1.084       .  S
C1840      N1844   1.438       .  S
N1842      H1845   1.046       .  S
N1842      H1846   1.046       .  S
N1844      H1847   1.046       .  S
N1844      H1848   1.044       .  S
C1853      C1854   1.416       .  A
C1853      C1858   1.405       .  A
C1854      C1855   1.410       .  A
C1854      N1859   1.438       .  S
C1855      C1856   1.402       .  A
C1855      H1860   1.084       .  S
C1856      C1861   1.489       .  S
C1856      C1857   1.412       .  A
C1857      C1858   1.409       .  A
C1857      N1862   1.439       .  S
C1858      H1863   1.084       .  S
N1859      H1879   1.045       .  S
N1859      H1880   1.046       .  S
C1861      C1864   1.403       .  A
C1861      C1868   1.411       .  A
N1862      H1877   1.046       .  S
N1862      H1878   1.043       .  S
C1864      C1865   1.409       .  A
C1864      H1869   1.084       .  S
C1865      C1866   1.414       .  A
C1865      N1870   1.438       .  S
C1866      C1867   1.406       .  A
C1867      C1868   1.411       .  A
C1867      H1871   1.083       .  S
C1868      N1872   1.438       .  S
N1870      H1873   1.046       .  S
N1870      H1874   1.045       .  S
N1872      H1875   1.046       .  S
N1872      H1876   1.043       .  S
C1881      C1882   1.415       .  A
C1881      C1886   1.410       .  A
C1882      C1883   1.412       .  A
C1882      N1887   1.437       .  S
C1883      C1884   1.403       .  A
C1883      H1888   1.084       .  S
C1884      C1889   1.493       .  S
C1884      C1885   1.411       .  A
C1885      C1886   1.411       .  A
C1885      N1890   1.439       .  S
C1886      H1891   1.084       .  S
N1887      H1907   1.045       .  S
N1887      H1908   1.046       .  S
C1889      C1892   1.404       .  A
C1889      C1896   1.413       .  A
N1890      H1905   1.045       .  S
N1890      H1906   1.044       .  S
C1892      C1893   1.413       .  A
C1892      H1897   1.083       .  S
C1893      C1894   1.415       .  A
C1893      N1898   1.438       .  S
C1894      C1895   1.405       .  A
C1895      C1896   1.410       .  A
C1895      H1899   1.084       .  S
C1896      N1900   1.439       .  S
N1898      H1901   1.046       .  S
N1898      H1902   1.046       .  S
N1900      H1903   1.045       .  S
N1900      H1904   1.044       .  S
