geometry optimzed in LAMMPS
_audit_creation_date              2020-11-30 
_audit_creation_method            'lammps2cif' 
_symmetry_space_group_name_H-M    'P1' 
_symmetry_Int_Tables_number       1 
_symmetry_cell_setting            triclinic 
loop_ 
_symmetry_equiv_pos_as_xyz 
  x,y,z 
_cell_length_a                    77.56025901 
_cell_length_b                    76.89587179191953 
_cell_length_c                    24.29210636733127 
_cell_angle_alpha                 89.60798030640608 
_cell_angle_beta                  89.74312912350588 
_cell_angle_gamma                 89.68958437584602 
loop_ 
_atom_site_label 
_atom_site_type_symbol 
_atom_site_fract_x 
_atom_site_fract_y 
_atom_site_fract_z 
_atom_site_charge 
C1          C  0.90354645  0.74496105  0.00461375     0.86300
C2          C  0.90089814  0.73183750  0.05244175    -0.54000
C3          C  0.88550153  0.72321634  0.05040683     0.09200
C4          C  0.87416464  0.72847007  0.00117873     0.20200
C5          C  0.90098215  0.73411626  0.95224595    -0.54700
C6          C  0.88566856  0.72535377  0.95031296     0.09300
C7          C  0.88763385  0.75681054  0.00803814    -0.54200
C8          C  0.87234416  0.74829734  0.00580566     0.09900
H9          H  0.91007074  0.72927895  0.08496604     0.14400
H10         H  0.86160920  0.72163048  0.00059511     0.00100
H11         H  0.91056721  0.73350696  0.91960136     0.14700
H12         H  0.88843122  0.77088204  0.01064774     0.14500
O13         O  0.86628682  0.57605646  0.55548902    -0.74600
O14         O  0.86822662  0.61015148  0.43996137    -0.74700
O15         O  0.87233188  0.61070248  0.55079778    -0.74700
O16         O  0.86219709  0.57561028  0.44507881    -0.74800
O17         O  0.83408945  0.58095784  0.45466560    -0.74700
O18         O  0.84424768  0.61579183  0.56232132    -0.74700
O19         O  0.84022141  0.61579066  0.45117774    -0.74700
O20         O  0.83814193  0.58106759  0.56567256    -0.74700
Ni21       Ni  0.86823727  0.59296582  0.49746517     1.25400
Ni22       Ni  0.83816105  0.59860183  0.50880991     1.25400
C23         C  0.85189778  0.57282289  0.57950095     0.87500
C24         C  0.85459382  0.61861486  0.42643619     0.87500
C25         C  0.85999467  0.61896666  0.57443194     0.87500
C26         C  0.84651776  0.57242704  0.43240135     0.87700
C27         C  0.89489791  0.12944745  0.02421934     0.86300
C28         C  0.89034745  0.14215747  0.97721348    -0.54000
C29         C  0.87310557  0.14562105  0.97271231     0.09200
C30         C  0.86200764  0.13638229  0.01635642     0.20200
C31         C  0.88723233  0.13804593  0.07574582    -0.54700
C32         C  0.87005469  0.14181701  0.07143715     0.09300
C33         C  0.88366197  0.11356267  0.01437161    -0.54200
C34         C  0.86637845  0.11688698  0.00993727     0.09900
H35         H  0.89984493  0.14791803  0.94981118     0.14400
H36         H  0.84815883  0.13980295  0.01374058     0.00100
H37         H  0.89490316  0.14218441  0.11051332     0.14700
H38         H  0.88946319  0.10079353  0.01072800     0.14500
O39         O  0.85608553  0.25261446  0.56087233    -0.74600
O40         O  0.84899940  0.28832562  0.45363388    -0.74700
O41         O  0.85271597  0.28752212  0.56378777    -0.74700
O42         O  0.85229661  0.25335266  0.45033311    -0.74800
O43         O  0.82396365  0.25002215  0.46189768    -0.74700
O44         O  0.82422129  0.28522607  0.57309943    -0.74700
O45         O  0.82054695  0.28538329  0.46215657    -0.74700
O46         O  0.82770698  0.25008909  0.57284458    -0.74700
Ni47       Ni  0.85350349  0.27052481  0.50675318     1.25400
Ni48       Ni  0.82306382  0.26757009  0.51777262     1.25400
C49         C  0.84317179  0.24559733  0.58518879     0.87500
C50         C  0.83367172  0.29291257  0.44041380     0.87500
C51         C  0.83855774  0.29213368  0.58693770     0.87500
C52         C  0.83812863  0.24590847  0.43778644     0.87700
O53         O  0.82096564  0.45158735  0.95606329    -0.74600
O54         O  0.82079142  0.41522342  0.06548655    -0.74700
O55         O  0.82237763  0.45051779  0.06757364    -0.74700
O56         O  0.81929339  0.41631351  0.95381957    -0.74800
O57         O  0.84796641  0.41473300  0.94996888    -0.74700
O58         O  0.85103817  0.44912158  0.06235472    -0.74700
O59         O  0.84946607  0.41396397  0.06106413    -0.74700
O60         O  0.84961534  0.44983106  0.95114648    -0.74700
Ni61       Ni  0.81982066  0.43345291  0.01090554     1.25400
Ni62       Ni  0.85051791  0.43185815  0.00602796     1.25400
C63         C  0.83535403  0.45668615  0.93546227     0.87500
C64         C  0.83516134  0.40858839  0.08133696     0.87500
C65         C  0.83726140  0.45560169  0.08333455     0.87500
C66         C  0.83313789  0.40985784  0.93316243     0.87700
C67         C  0.83068272  0.77093788  0.96115328     0.86300
C68         C  0.84126096  0.78779293  0.96074650    -0.54000
C69         C  0.85271206  0.78915886  0.00298796     0.09200
C70         C  0.85230974  0.77352336  0.04283320     0.20200
C71         C  0.84446310  0.75637922  0.96258127    -0.54700
C72         C  0.85583961  0.75788903  0.00505203     0.09300
C73         C  0.82217711  0.77015651  0.01791869    -0.54200
C74         C  0.83334142  0.77146687  0.06075060     0.09900
H75         H  0.84018665  0.79752094  0.92828690     0.14400
H76         H  0.86150010  0.77442853  0.07761281     0.00100
H77         H  0.84635790  0.74681664  0.93071423     0.14700
H78         H  0.80835966  0.76867313  0.02376626     0.14500
O79         O  0.72177329  0.78997205  0.56267019    -0.74600
O80         O  0.69121295  0.79714769  0.44123066    -0.74700
O81         O  0.68769607  0.79753270  0.55226259    -0.74700
O82         O  0.72528052  0.78971703  0.45223620    -0.74800
O83         O  0.71962889  0.76133865  0.45249849    -0.74700
O84         O  0.68170138  0.76923585  0.55146346    -0.74700
O85         O  0.68553876  0.76877556  0.44055696    -0.74700
O86         O  0.71566846  0.76167852  0.56288184    -0.74700
Ni87       Ni  0.70667716  0.79460143  0.50211348     1.25400
Ni88       Ni  0.70039549  0.76425818  0.50179253     1.25400
C89         C  0.72393527  0.77460651  0.58232832     0.87500
C90         C  0.68331625  0.78411311  0.42079488     0.87500
C91         C  0.67847177  0.78467965  0.56844668     0.87500
C92         C  0.72886506  0.77422796  0.43655522     0.87700
C93         C  0.25470620  0.79676801  0.05750835     0.86300
C94         C  0.24251554  0.81206870  0.04486936    -0.54000
C95         C  0.23306864  0.81011100  0.99811066     0.09200
C96         C  0.23645764  0.79289758  0.96829540     0.20200
C97         C  0.24270561  0.78079627  0.05931935    -0.54700
C98         C  0.23326163  0.77878243  0.01242178     0.09300
C99         C  0.26545747  0.79448246  0.00488253    -0.54200
C100        C  0.25601470  0.79268790  0.95807490     0.09900
H101        H  0.24148193  0.82350283  0.07072844     0.14400
H102        H  0.22870783  0.79132970  0.93033347     0.00100
H103        H  0.24148396  0.77185971  0.09373168     0.14700
H104        H  0.27943884  0.79531649  0.00447458     0.14500
O105        O  0.39667626  0.83238472  0.56964542    -0.74600
O106        O  0.36535901  0.82602578  0.44990580    -0.74700
O107        O  0.36254775  0.82486796  0.56108122    -0.74700
O108        O  0.39942933  0.83340846  0.45787943    -0.74800
O109        O  0.40574201  0.80510229  0.45859035    -0.74700
O110        O  0.36875626  0.79655752  0.55905613    -0.74700
O111        O  0.37183630  0.79776338  0.44855592    -0.74700
O112        O  0.40255028  0.80398531  0.56947449    -0.74700
Ni113      Ni  0.38079860  0.83020920  0.50966479     1.25400
Ni114      Ni  0.38746075  0.79988030  0.50887369     1.25400
C115        C  0.40467334  0.81917064  0.58968267     0.87500
C116        C  0.36334032  0.81082199  0.42970990     0.87500
C117        C  0.35948659  0.80919468  0.57663282     0.87500
C118        C  0.40867393  0.82057291  0.44124008     0.87700
O119        O  0.56344115  0.80026931  0.05751590    -0.74600
O120        O  0.52614593  0.80216448  0.95636819    -0.74700
O121        O  0.56081166  0.80004265  0.94696218    -0.74700
O122        O  0.52885911  0.80253379  0.06697305    -0.74800
O123        O  0.53024036  0.83146723  0.06548438    -0.74700
O124        O  0.56242752  0.82895396  0.94478254    -0.74700
O125        O  0.52740001  0.83110152  0.95415258    -0.74700
O126        O  0.56523065  0.82917560  0.05634901    -0.74700
Ni127      Ni  0.54475385  0.80027503  0.00699953     1.25400
Ni128      Ni  0.54639257  0.83124544  0.00510237     1.25400
C129        C  0.57054388  0.81429160  0.07376655     0.87500
C130        C  0.52051340  0.81682272  0.93859420     0.87500
C131        C  0.56702984  0.81404213  0.92621465     0.87500
C132        C  0.52418336  0.81733979  0.08598086     0.87700
C133        C  0.84347915  0.07315595  0.98441310     0.86300
C134        C  0.83057251  0.07670715  0.03138556    -0.54000
C135        C  0.82567629  0.09378949  0.03577462     0.09200
C136        C  0.83397480  0.10571191  0.99197292     0.20200
C137        C  0.83434913  0.08022990  0.93289621    -0.54700
C138        C  0.82934941  0.09727671  0.93652025     0.09300
C139        C  0.85824856  0.08573380  0.99439989    -0.54200
C140        C  0.85356827  0.10285648  0.99873362     0.09900
H141        H  0.82581121  0.06667618  0.05901643     0.14400
H142        H  0.82969438  0.11941175  0.99454414     0.00100
H143        H  0.83131912  0.07222218  0.89766250     0.14700
H144        H  0.87132520  0.08092173  0.99817781     0.14500
O145        O  0.71537298  0.10936658  0.43972082    -0.74600
O146        O  0.68254880  0.11619197  0.55460280    -0.74700
O147        O  0.68094663  0.11512551  0.44370078    -0.74700
O148        O  0.71690074  0.11057998  0.55025384    -0.74800
O149        O  0.72136754  0.13916374  0.54674048    -0.74700
O150        O  0.68523668  0.14372328  0.43932358    -0.74700
O151        O  0.68669698  0.14482588  0.55099645    -0.74700
O152        O  0.71998301  0.13790864  0.43476307    -0.74700
Ni153      Ni  0.69877476  0.11185186  0.49717578     1.25400
Ni154      Ni  0.70348736  0.14246124  0.49273936     1.25400
C155        C  0.72326498  0.12237453  0.41854010     0.87500
C156        C  0.67918480  0.13150778  0.57206971     0.87500
C157        C  0.67704387  0.13014455  0.42405895     0.87500
C158        C  0.72512030  0.12404948  0.56609476     0.87700
C159        C  0.24808904  0.10771945  0.95247829     0.86300
C160        C  0.23767646  0.09060764  0.95176169    -0.54000
C161        C  0.22859740  0.08739549  0.99907466     0.09200
C162        C  0.23083384  0.10145112  0.04311440     0.20200
C163        C  0.23454701  0.12171824  0.96654788    -0.54700
C164        C  0.22535938  0.11832704  0.01344598     0.09300
C165        C  0.25932805  0.10614022  0.00394068    -0.54200
C166        C  0.25043449  0.10302081  0.05152145     0.09900
H167        H  0.23679007  0.08188579  0.91720215     0.14400
H168        H  0.22343577  0.09889752  0.08156235     0.00100
H169        H  0.23134405  0.13232873  0.93871669     0.14700
H170        H  0.27320207  0.10799452  0.00290000     0.14500
O171        O  0.36467333  0.10539099  0.56194753    -0.74600
O172        O  0.39777182  0.10781947  0.44506933    -0.74700
O173        O  0.39909004  0.11132579  0.55531119    -0.74700
O174        O  0.36337248  0.10193823  0.45149289    -0.74800
O175        O  0.35824860  0.13034666  0.44244585    -0.74700
O176        O  0.39394240  0.13974930  0.54689766    -0.74700
O177        O  0.39280837  0.13626938  0.43635388    -0.74700
O178        O  0.35938113  0.13377933  0.55324590    -0.74700
Ni179      Ni  0.38139194  0.10562699  0.50379834     1.25400
Ni180      Ni  0.37590272  0.13605765  0.49443119     1.25400
C181        C  0.35640208  0.11908157  0.57657142     0.87500
C182        C  0.40095583  0.12246714  0.42186111     0.87500
C183        C  0.40260993  0.12708680  0.56767546     0.87500
C184        C  0.35484037  0.11456139  0.42995661     0.87700
O185        O  0.52031270  0.15660615  0.04711786    -0.74600
O186        O  0.55669187  0.15938447  0.94040849    -0.74700
O187        O  0.52190875  0.15583349  0.93541412    -0.74700
O188        O  0.55513117  0.15986100  0.05241267    -0.74800
O189        O  0.55766075  0.13099372  0.05465634    -0.74700
O190        O  0.52500867  0.12702958  0.93870524    -0.74700
O191        O  0.55956949  0.13054911  0.94324711    -0.74700
O192        O  0.52308127  0.12775864  0.04983010    -0.74700
Ni193      Ni  0.53841817  0.15897149  0.99373978     1.25400
Ni194      Ni  0.54144715  0.12809087  0.99667834     1.25400
C195        C  0.51568513  0.14176247  0.06618923     0.87500
C196        C  0.56407148  0.14541208  0.92387519     0.87500
C197        C  0.51799099  0.14064514  0.91787478     0.87500
C198        C  0.56174114  0.14595244  0.07318099     0.87700
C199        C  0.20541138  0.74188440  0.95596234     0.86300
C200        C  0.18889981  0.75193254  0.97194843    -0.54000
C201        C  0.19007503  0.76075804  0.02026706     0.09200
C202        C  0.20760450  0.75877337  0.04887615     0.20200
C203        C  0.21961356  0.75569436  0.95641868    -0.54700
C204        C  0.22084270  0.76447798  0.00484945     0.09300
C205        C  0.20903852  0.73026098  0.00627043    -0.54200
C206        C  0.21008588  0.73892716  0.05508362     0.09900
H207        H  0.17720772  0.75257271  0.94799893     0.14400
H208        H  0.20848877  0.76607645  0.08803453     0.00100
H209        H  0.22797133  0.75829771  0.92134752     0.14700
H210        H  0.20976616  0.71618288  0.00355098     0.14500
O211        O  0.18595060  0.59359858  0.45395119    -0.74600
O212        O  0.18976007  0.62787525  0.56759565    -0.74700
O213        O  0.19117580  0.62858780  0.45596367    -0.74700
O214        O  0.18438636  0.59308622  0.56546732    -0.74800
O215        O  0.21274905  0.58848435  0.56874993    -0.74700
O216        O  0.21954723  0.62409510  0.45950444    -0.74700
O217        O  0.21810700  0.62314212  0.57085162    -0.74700
O218        O  0.21434739  0.58925843  0.45755896    -0.74700
Ni219      Ni  0.18679909  0.61095968  0.51055263     1.25400
Ni220      Ni  0.21717821  0.60609370  0.51420457     1.25400
C221        C  0.19957790  0.58563086  0.43742472     0.87500
C222        C  0.20460276  0.63105601  0.58822376     0.87500
C223        C  0.20648774  0.63228878  0.43979284     0.87500
C224        C  0.19743840  0.58495597  0.58536972     0.87700
C225        C  0.17733016  0.12755140  0.03427518     0.86300
C226        C  0.18044101  0.13965385  0.08344641    -0.54000
C227        C  0.19494902  0.14954032  0.07841008     0.09200
C228        C  0.20515563  0.14642433  0.02487619     0.20200
C229        C  0.17741155  0.13986523  0.98404237    -0.54700
C230        C  0.19191486  0.14984351  0.97890337     0.09300
C231        C  0.19397041  0.11694835  0.02931555    -0.54200
C232        C  0.20850029  0.12667855  0.02404570     0.09900
H233        H  0.17170667  0.14132638  0.11787985     0.14400
H234        H  0.21705048  0.15432580  0.02193737     0.00100
H235        H  0.16682379  0.14046258  0.95501569     0.14700
H236        H  0.19411382  0.10283651  0.02818801     0.14500
O237        O  0.17949510  0.26257891  0.46129237    -0.74600
O238        O  0.17290651  0.29721162  0.57296566    -0.74700
O239        O  0.17565325  0.29758356  0.46190194    -0.74700
O240        O  0.17657421  0.26197348  0.57262409    -0.74800
O241        O  0.20498776  0.26506380  0.58120822    -0.74700
O242        O  0.20417212  0.30019825  0.46837553    -0.74700
O243        O  0.20139447  0.30013597  0.57906442    -0.74700
O244        O  0.20797357  0.26507543  0.47014729    -0.74700
Ni245      Ni  0.17513809  0.27970374  0.51700993     1.25400
Ni246      Ni  0.20563579  0.28270158  0.52492973     1.25400
C247        C  0.19486387  0.25811153  0.44745953     0.87500
C248        C  0.18613584  0.30463871  0.59368556     0.87500
C249        C  0.18975119  0.30486643  0.44707818     0.87500
C250        C  0.19086769  0.25764571  0.59532473     0.87700
O251        O  0.19877877  0.46136412  0.07984975    -0.74600
O252        O  0.20024061  0.42727477  0.96584237    -0.74700
O253        O  0.20198330  0.46239402  0.96888605    -0.74700
O254        O  0.19710183  0.42633345  0.07665969    -0.74800
O255        O  0.16850914  0.42790862  0.06941252    -0.74700
O256        O  0.17342627  0.46409096  0.96065799    -0.74700
O257        O  0.17166353  0.42878178  0.95803233    -0.74700
O258        O  0.17021101  0.46312339  0.07205058    -0.74700
Ni259      Ni  0.20051749  0.44429232  0.02304582     1.25400
Ni260      Ni  0.16991976  0.44604423  0.01471391     1.25400
C261        C  0.18427194  0.46783967  0.09500577     0.87500
C262        C  0.18621792  0.42227957  0.94330794     0.87500
C263        C  0.18856272  0.46922758  0.94688220     0.87500
C264        C  0.18206118  0.42116030  0.09102248     0.87700
O265        O  0.08114272  0.92583532  0.02735585    -0.74600
O266        O  0.11473602  0.96221341  0.02529169    -0.74700
O267        O  0.07962379  0.96094100  0.02587262    -0.74700
O268        O  0.11585838  0.92673307  0.02522268    -0.74800
O269        O  0.11599056  0.92749688  0.93340099    -0.74700
O270        O  0.07941593  0.96079121  0.93400077    -0.74700
O271        O  0.11436046  0.96268307  0.93359917    -0.74700
O272        O  0.08128172  0.92569813  0.93547872    -0.74700
Ni273      Ni  0.09789549  0.94399882  0.02925080     1.25400
Ni274      Ni  0.09777689  0.94420897  0.93089095     1.25400
C275        C  0.07583150  0.91967511  0.98174604     0.87500
C276        C  0.12010544  0.96850588  0.97934283     0.87500
C277        C  0.07330198  0.96612631  0.97985037     0.87500
C278        C  0.12156809  0.92120497  0.97885039     0.87700
O279        O  0.05187384  0.98284180  0.02509636    -0.74600
O280        O  0.01505335  0.01592358  0.02497518    -0.74700
O281        O  0.01693512  0.98078519  0.01992219    -0.74700
O282        O  0.04972403  0.01780272  0.02878566    -0.74800
O283        O  0.05074813  0.01915115  0.93714752    -0.74700
O284        O  0.01805831  0.98217896  0.92820299    -0.74700
O285        O  0.01599007  0.01742497  0.93335132    -0.74700
O286        O  0.05300945  0.98413831  0.93333302    -0.74700
Ni287      Ni  0.03331603  0.99924877  0.02792033     1.25400
Ni288      Ni  0.03446443  0.00074042  0.92970433     1.25400
C289        C  0.05871083  0.97829053  0.97939425     0.87500
C290        C  0.00966920  0.02242513  0.97953131     0.87500
C291        C  0.01207941  0.97542214  0.97258739     0.87500
C292        C  0.05569099  0.02454466  0.98424287     0.87700
O293        O  0.02257875  0.89699421  0.02141863    -0.74600
O294        O  0.05962089  0.86446731  0.03412045    -0.74700
O295        O  0.05730122  0.89955259  0.02795079    -0.74700
O296        O  0.02478739  0.86184902  0.02541583    -0.74800
O297        O  0.02757087  0.86075513  0.93419068    -0.74700
O298        O  0.05905665  0.89870852  0.93628434    -0.74700
O299        O  0.06251632  0.86381901  0.94281100    -0.74700
O300        O  0.02440726  0.89589245  0.92979967    -0.74700
Ni301      Ni  0.04098809  0.88071838  0.03047737     1.25400
Ni302      Ni  0.04344179  0.87970329  0.93250869     1.25400
C303        C  0.01742323  0.90186793  0.97384607     0.87500
C304        C  0.06752230  0.85913785  0.99104619     0.87500
C305        C  0.06343527  0.90533157  0.98220107     0.87500
C306        C  0.02071535  0.85517768  0.97894207     0.87700
O307        O  0.99314795  0.95511431  0.01419771    -0.74600
O308        O  0.96174414  0.91711361  0.00952756    -0.74700
O309        O  0.99628707  0.92006293  0.01504811    -0.74700
O310        O  0.95832557  0.95217474  0.00710962    -0.74800
O311        O  0.96037888  0.95213724  0.91557378    -0.74700
O312        O  0.99800689  0.91978144  0.92332747    -0.74700
O313        O  0.96330972  0.91682427  0.91793258    -0.74700
O314        O  0.99521638  0.95501508  0.92256323    -0.74700
Ni315      Ni  0.97730396  0.93615503  0.01466372     1.25400
Ni316      Ni  0.97927320  0.93596963  0.91652902     1.25400
C317        C  0.99952039  0.96120676  0.96946113     0.87500
C318        C  0.95749060  0.91049616  0.96338517     0.87500
C319        C  0.00324382  0.91451460  0.97046131     0.87500
C320        C  0.95306252  0.95743931  0.95981947     0.87700
C321        C  0.18397437  0.31884916  0.63418633    -0.03400
C322        C  0.16753813  0.32432140  0.65173849    -0.06000
C323        C  0.16574962  0.33812904  0.68874152    -0.21100
C324        C  0.18031493  0.34670276  0.70922589     0.24600
C325        C  0.19674316  0.34134000  0.69092949    -0.18600
C326        C  0.19852327  0.32754270  0.65425178    -0.08600
C327        C  0.17786683  0.36143183  0.74821172    -0.18900
C328        C  0.19037794  0.36700708  0.78217685    -0.23700
C329        C  0.18858823  0.38172014  0.82145004     0.26700
C330        C  0.20366777  0.38835217  0.84498842    -0.20500
C331        C  0.20288027  0.40165303  0.88376785    -0.10100
C332        C  0.18693615  0.40866653  0.90032856    -0.10700
C333        C  0.17179230  0.40219242  0.87650905    -0.03600
C334        C  0.17257707  0.38884201  0.83754782    -0.18700
H335        H  0.15605549  0.31800471  0.63670359     0.10400
H336        H  0.15293330  0.34208941  0.70157712     0.10500
H337        H  0.20831792  0.34793285  0.70359992     0.10100
H338        H  0.21137485  0.32386012  0.64099197     0.11200
H339        H  0.16527494  0.36759668  0.74899956     0.11300
H340        H  0.20279612  0.36048222  0.78177487     0.13200
H341        H  0.21617564  0.38314112  0.83354347     0.09700
H342        H  0.21480976  0.40631237  0.90118563     0.11800
H343        H  0.15929196  0.40725815  0.88857768     0.08500
H344        H  0.16059145  0.38396573  0.82144766     0.11200
C345        C  0.18050963  0.40719655  0.13303075    -0.03400
C346        C  0.16430279  0.40129429  0.15107306    -0.06000
C347        C  0.16309835  0.38795983  0.19045534    -0.21100
C348        C  0.17803126  0.38037246  0.21288572     0.24600
C349        C  0.19422772  0.38618530  0.19428935    -0.18600
C350        C  0.19542820  0.39948269  0.15516266    -0.08600
C351        C  0.17634740  0.36593009  0.25358023    -0.18900
C352        C  0.18879448  0.36199263  0.29027116    -0.23700
C353        C  0.18836862  0.34703518  0.32943647     0.26700
C354        C  0.20366952  0.34266788  0.35708639    -0.20500
C355        C  0.20417986  0.32883245  0.39453115    -0.10100
C356        C  0.18932075  0.31906531  0.40564238    -0.10700
C357        C  0.17395239  0.32337906  0.37810654    -0.03600
C358        C  0.17345023  0.33720810  0.34037606    -0.18700
H359        H  0.15255973  0.40692926  0.13467700     0.10400
H360        H  0.15046741  0.38359229  0.20358436     0.10500
H361        H  0.20606531  0.38025542  0.20865239     0.10100
H362        H  0.20812075  0.40357555  0.14179172     0.11200
H363        H  0.16452874  0.35849946  0.25269691     0.11300
H364        H  0.20023411  0.37003149  0.29153408     0.13200
H365        H  0.21534983  0.35000018  0.34964716     0.09700
H366        H  0.21619856  0.32593000  0.41525699     0.11800
H367        H  0.16225100  0.31613474  0.38596630     0.08500
H368        H  0.16129290  0.34019749  0.32089224     0.11200
C369        C  0.06865227  0.03853837  0.98703795    -0.03400
C370        C  0.07566872  0.04571785  0.93860196    -0.06000
C371        C  0.08856550  0.05827869  0.94122510    -0.21100
C372        C  0.09479688  0.06393090  0.99218926     0.24600
C373        C  0.08732825  0.05715799  0.04075038    -0.18600
C374        C  0.07445666  0.04456212  0.03809070    -0.08600
C375        C  0.10918659  0.07664534  0.99225546    -0.18900
C376        C  0.11833497  0.08082690  0.03720421    -0.23700
C377        C  0.13306040  0.09299095  0.03530724     0.26700
C378        C  0.13677897  0.10277974  0.08213253    -0.20500
C379        C  0.15077554  0.11412630  0.08250481    -0.10100
C380        C  0.16155229  0.11581671  0.03591789    -0.10700
C381        C  0.15797917  0.10557372  0.98950348    -0.03600
C382        C  0.14389668  0.09435807  0.98903567    -0.18700
H383        H  0.07139150  0.04145211  0.89855002     0.10400
H384        H  0.09392245  0.06336483  0.90316328     0.10500
H385        H  0.09123963  0.06140028  0.08103940     0.10100
H386        H  0.06916659  0.03942566  0.07615699     0.11200
H387        H  0.11259411  0.08258237  0.95302845     0.11300
H388        H  0.11500610  0.07552223  0.07721021     0.13200
H389        H  0.12877723  0.10166149  0.11864626     0.09700
H390        H  0.15308776  0.12111563  0.12000554     0.11800
H391        H  0.16625268  0.10618406  0.95349891     0.08500
H392        H  0.14181635  0.08647356  0.95296084     0.11200
C393        C  0.19095025  0.24393849  0.63843565    -0.03400
C394        C  0.17659455  0.23309755  0.64540043    -0.06000
C395        C  0.17635616  0.22043314  0.68682039    -0.21100
C396        C  0.19037204  0.21832080  0.72270470     0.24600
C397        C  0.20488519  0.22907703  0.71537537    -0.18600
C398        C  0.20516825  0.24168669  0.67347863    -0.08600
C399        C  0.18885496  0.20499119  0.76729713    -0.18900
C400        C  0.20089266  0.20158797  0.80585552    -0.23700
C401        C  0.19828969  0.18844423  0.85032220     0.26700
C402        C  0.21271435  0.18038722  0.87431097    -0.20500
C403        C  0.21069508  0.16787853  0.91593129    -0.10100
C404        C  0.19417345  0.16321258  0.93475569    -0.10700
C405        C  0.17976298  0.17169382  0.91179713    -0.03600
C406        C  0.18177901  0.18417018  0.87026442    -0.18700
H407        H  0.16548539  0.23439690  0.61880645     0.10400
H408        H  0.16502633  0.21235089  0.69117201     0.10500
H409        H  0.21601899  0.22802791  0.74170614     0.10100
H410        H  0.21641599  0.24987537  0.66912176     0.11200
H411        H  0.17704613  0.19748749  0.76797225     0.11300
H412        H  0.21323132  0.20809405  0.80454453     0.13200
H413        H  0.22559008  0.18361320  0.86027871     0.09700
H414        H  0.22211716  0.16175039  0.93259110     0.11800
H415        H  0.16687021  0.16898863  0.92660403     0.08500
H416        H  0.17036420  0.19066388  0.85480742     0.11200
C417        C  0.19760566  0.24473264  0.40487945    -0.03400
C418        C  0.21301097  0.23502871  0.40360406    -0.06000
C419        C  0.21554697  0.22213936  0.36404698    -0.21100
C420        C  0.20297802  0.21907035  0.32406166     0.24600
C421        C  0.18762609  0.22888589  0.32487698    -0.18600
C422        C  0.18491191  0.24150776  0.36523863    -0.08600
C423        C  0.20562765  0.20480405  0.28425129    -0.18900
C424        C  0.20007502  0.20579690  0.23197919    -0.23700
C425        C  0.20112034  0.19093737  0.19356968     0.26700
C426        C  0.20259986  0.19415008  0.13679596    -0.20500
C427        C  0.20173050  0.18045827  0.09929988    -0.10100
C428        C  0.19888941  0.16342213  0.11805646    -0.10700
C429        C  0.19783172  0.16011550  0.17483148    -0.03600
C430        C  0.19904782  0.17372751  0.21233751    -0.18700
H431        H  0.22296985  0.23717501  0.43388308     0.10400
H432        H  0.22737941  0.21458813  0.36449980     0.10500
H433        H  0.17753114  0.22649087  0.29528068     0.10100
H434        H  0.17292936  0.24880610  0.36528107     0.11200
H435        H  0.21266043  0.19334262  0.29812596     0.11300
H436        H  0.19462277  0.21793666  0.21666086     0.13200
H437        H  0.20404638  0.20732192  0.12142986     0.09700
H438        H  0.20232609  0.18329739  0.05559161     0.11800
H439        H  0.19554590  0.14704883  0.19003275     0.08500
H440        H  0.19746646  0.17085556  0.25574057     0.11200
C441        C  0.18384962  0.48094365  0.13947730    -0.03400
C442        C  0.16833373  0.48916469  0.15478194    -0.06000
C443        C  0.16815390  0.50186759  0.19579164    -0.21100
C444        C  0.18346207  0.50672206  0.22203828     0.24600
C445        C  0.19888345  0.49804546  0.20805044    -0.18600
C446        C  0.19907113  0.48539198  0.16707428    -0.08600
C447        C  0.18286819  0.52072687  0.26399243    -0.18900
C448        C  0.19661892  0.53065776  0.27575019    -0.23700
C449        C  0.19662877  0.54476032  0.31730121     0.26700
C450        C  0.18150634  0.55319711  0.33559005    -0.20500
C451        C  0.18241446  0.56660950  0.37423124    -0.10100
C452        C  0.19841455  0.57185693  0.39523657    -0.10700
C453        C  0.21346956  0.56352118  0.37639448    -0.03600
C454        C  0.21256951  0.55021545  0.33779464    -0.18700
H455        H  0.15634906  0.48592289  0.13469530     0.10400
H456        H  0.15606369  0.50815942  0.20633001     0.10500
H457        H  0.21083502  0.50081123  0.22891249     0.10100
H458        H  0.21119209  0.47908998  0.15703168     0.11200
H459        H  0.17063535  0.52308396  0.28448267     0.11300
H460        H  0.20870858  0.52833725  0.25433607     0.13200
H461        H  0.16899826  0.54974166  0.31969848     0.09700
H462        H  0.17058825  0.57283431  0.38772619     0.11800
H463        H  0.22602019  0.56723247  0.39157558     0.08500
H464        H  0.22442176  0.54404841  0.32417292     0.11200
C465        C  0.19071262  0.48316147  0.90495270    -0.03400
C466        C  0.20729486  0.48835712  0.88845149    -0.06000
C467        C  0.20947129  0.50126533  0.84837914    -0.21100
C468        C  0.19518203  0.50939244  0.82367194     0.24600
C469        C  0.17851880  0.50425220  0.84041967    -0.18600
C470        C  0.17634810  0.49130019  0.88065484    -0.08600
C471        C  0.19853828  0.52272831  0.78004028    -0.18900
C472        C  0.18634826  0.53275252  0.75591273    -0.23700
C473        C  0.18983726  0.54593746  0.71179841     0.26700
C474        C  0.17572391  0.55472816  0.68822266    -0.20500
C475        C  0.17814897  0.56729377  0.64706130    -0.10100
C476        C  0.19480671  0.57142207  0.62834225    -0.10700
C477        C  0.20895574  0.56264351  0.65163013    -0.03600
C478        C  0.20654966  0.55009040  0.69283964    -0.18700
H479        H  0.21866431  0.48237431  0.90626039     0.10400
H480        H  0.22245654  0.50486517  0.83646316     0.10500
H481        H  0.16705542  0.50988206  0.82247562     0.10100
H482        H  0.16339395  0.48758247  0.89245403     0.11200
H483        H  0.21187428  0.52414695  0.76770295     0.11300
H484        H  0.17302532  0.53142204  0.76865244     0.13200
H485        H  0.16270568  0.55188500  0.70176010     0.09700
H486        H  0.16694646  0.57381156  0.63004689     0.11800
H487        H  0.22197045  0.56553967  0.63823709     0.08500
H488        H  0.21794049  0.54393171  0.70941978     0.11200
C489        C  0.08297216  0.84797738  0.99804648    -0.03400
C490        C  0.09585755  0.84740466  0.95730207    -0.06000
C491        C  0.11117796  0.83814331  0.96648563    -0.21100
C492        C  0.11375489  0.82896324  0.01597057     0.24600
C493        C  0.10079535  0.82942962  0.05659605    -0.18600
C494        C  0.08560930  0.83888985  0.04775896    -0.08600
C495        C  0.13011806  0.81916374  0.02399876    -0.18900
C496        C  0.13114140  0.80456239  0.05472464    -0.23700
C497        C  0.14673907  0.79338353  0.05467130     0.26700
C498        C  0.14468068  0.77533796  0.05094261    -0.20500
C499        C  0.15898181  0.76455135  0.04296447    -0.10100
C500        C  0.17562124  0.77158646  0.04039471    -0.10700
C501        C  0.17787390  0.78942938  0.04918601    -0.03600
C502        C  0.16348310  0.80034974  0.05540806    -0.18700
H503        H  0.09430443  0.85451403  0.91899194     0.10400
H504        H  0.12102692  0.83807755  0.93472117     0.10500
H505        H  0.10250289  0.82285655  0.09573728     0.10100
H506        H  0.07597305  0.83923037  0.08014984     0.11200
H507        H  0.14125095  0.82313788  0.99974783     0.11300
H508        H  0.11961184  0.79941967  0.07427152     0.13200
H509        H  0.13191183  0.76969428  0.05087002     0.09700
H510        H  0.15702556  0.75077281  0.03658096     0.11800
H511        H  0.19065058  0.79501753  0.04796818     0.08500
H512        H  0.16539970  0.81422078  0.05947785     0.11200
C513        C  0.21110720  0.72947502  0.10861975    -0.03400
C514        C  0.20109948  0.73486361  0.15374782    -0.06000
C515        C  0.20006670  0.72452444  0.20137554    -0.21100
C516        C  0.20917403  0.70870878  0.20522171     0.24600
C517        C  0.21964346  0.70363122  0.16056096    -0.18600
C518        C  0.22062777  0.71392844  0.11302107    -0.08600
C519        C  0.20641495  0.69726311  0.25428721    -0.18900
C520        C  0.21742946  0.68447024  0.26940350    -0.23700
C521        C  0.21419748  0.67196957  0.31543015     0.26700
C522        C  0.22822213  0.66259824  0.33712555    -0.20500
C523        C  0.22575402  0.64991254  0.37789704    -0.10100
C524        C  0.20912785  0.64614653  0.39771735    -0.10700
C525        C  0.19505885  0.65559340  0.37632995    -0.03600
C526        C  0.19753657  0.66833138  0.33558217    -0.18700
H527        H  0.19338719  0.74661911  0.15126727     0.10400
H528        H  0.19179245  0.72869966  0.23486715     0.10500
H529        H  0.22654306  0.69138124  0.16089989     0.10100
H530        H  0.22850600  0.70946133  0.07896785     0.11200
H531        H  0.19494779  0.69966071  0.27888625     0.11300
H532        H  0.22962874  0.68314111  0.24778798     0.13200
H533        H  0.24117287  0.66500966  0.32213670     0.09700
H534        H  0.23688553  0.64290506  0.39339357     0.11800
H535        H  0.18206767  0.65298776  0.39053798     0.08500
H536        H  0.18630824  0.67487375  0.31902874     0.11200
C537        C  0.20631622  0.64398033  0.63269293    -0.03400
C538        C  0.22229699  0.64636621  0.65863712    -0.06000
C539        C  0.22407070  0.65862305  0.70033234    -0.21100
C540        C  0.21001344  0.66893718  0.71647405     0.24600
C541        C  0.19391680  0.66636065  0.69132310    -0.18600
C542        C  0.19210377  0.65400310  0.64981753    -0.08600
C543        C  0.21245866  0.68178149  0.76096381    -0.18900
C544        C  0.20306479  0.69649063  0.76472702    -0.23700
C545        C  0.20454478  0.70892661  0.81088995     0.26700
C546        C  0.19036476  0.71960485  0.82283970    -0.20500
C547        C  0.19054033  0.73067011  0.86810890    -0.10100
C548        C  0.20506472  0.73141464  0.90276896    -0.10700
C549        C  0.21967565  0.72142571  0.88854966    -0.03600
C550        C  0.21944863  0.71029783  0.84329464    -0.18700
H551        H  0.23347385  0.63873877  0.64680779     0.10400
H552        H  0.23652796  0.66020206  0.71962120     0.10500
H553        H  0.18263147  0.67362407  0.70418364     0.10100
H554        H  0.17957985  0.65232276  0.63111924     0.11200
H555        H  0.22238848  0.67894225  0.79105913     0.11300
H556        H  0.19326585  0.69923180  0.73404715     0.13200
H557        H  0.17884041  0.71903258  0.79786540     0.09700
H558        H  0.17905531  0.73822227  0.87530367     0.11800
H559        H  0.23119238  0.72192977  0.91354725     0.08500
H560        H  0.23094242  0.70282966  0.83411530     0.11200
C561        C  0.41439567  0.12341444  0.37840244    -0.03400
C562        C  0.42256309  0.10820741  0.35961062    -0.06000
C563        C  0.43543740  0.10906402  0.31930067    -0.21100
C564        C  0.44056636  0.12510702  0.29681817     0.24600
C565        C  0.43235246  0.14037078  0.31566697    -0.18600
C566        C  0.41944627  0.13949837  0.35601519    -0.08600
C567        C  0.45417526  0.12505079  0.25320642    -0.18900
C568        C  0.46197126  0.13941391  0.23313924    -0.23700
C569        C  0.47552540  0.13929227  0.18939288     0.26700
C570        C  0.48013621  0.15521136  0.16492742    -0.20500
C571        C  0.49304257  0.15599843  0.12469616    -0.10100
C572        C  0.50171912  0.14083967  0.10790774    -0.10700
C573        C  0.49711897  0.12487014  0.13210132    -0.03600
C574        C  0.48423770  0.12407942  0.17252233    -0.18700
H575        H  0.41900562  0.09558948  0.37600100     0.18400
H576        H  0.44144225  0.09708056  0.30565437     0.10500
H577        H  0.43553508  0.15304094  0.29929998     0.10100
H578        H  0.41342994  0.15146181  0.36971087     0.11200
H579        H  0.45775970  0.11242956  0.23714303     0.11300
H580        H  0.45834198  0.15206293  0.24884150     0.13200
H581        H  0.47373942  0.16715235  0.17709134     0.09700
H582        H  0.49626489  0.16852680  0.10693696     0.11800
H583        H  0.50363519  0.11296277  0.12032439     0.08500
H584        H  0.48153082  0.11154761  0.19079774     0.11200
C585        C  0.41705249  0.13065425  0.60570323    -0.03400
C586        C  0.42133047  0.14779028  0.61985426    -0.06000
C587        C  0.43511654  0.15105930  0.65524090    -0.21100
C588        C  0.44487260  0.13731051  0.67756902     0.24600
C589        C  0.44084314  0.12017140  0.66222333    -0.18600
C590        C  0.42704950  0.11690831  0.62703111    -0.08600
C591        C  0.45917177  0.14138963  0.71613022    -0.18900
C592        C  0.46566774  0.12972091  0.75223529    -0.23700
C593        C  0.47966002  0.13341519  0.79207303     0.26700
C594        C  0.48869842  0.11923673  0.81452035    -0.20500
C595        C  0.50128813  0.12170684  0.85444963    -0.10100
C596        C  0.50511562  0.13846916  0.87348501    -0.10700
C597        C  0.49622490  0.15276741  0.85070952    -0.03600
C598        C  0.48358816  0.15028385  0.81039856    -0.18700
H599        H  0.41402324  0.15869921  0.60362949     0.10400
H600        H  0.43804749  0.16438765  0.66571810     0.10500
H601        H  0.44839518  0.10918547  0.67637937     0.10100
H602        H  0.42431131  0.10357013  0.61620558     0.11200
H603        H  0.46413466  0.15454910  0.71536695     0.11300
H604        H  0.46056879  0.11662784  0.75327004     0.13200
H605        H  0.48592056  0.10611491  0.80135391     0.09700
H606        H  0.50787864  0.11037424  0.87090414     0.11800
H607        H  0.49881463  0.16583190  0.86469465     0.08500
H608        H  0.47664028  0.16153319  0.79512751     0.11200
C609        C  0.21585319  0.07311488  0.00390634    -0.03400
C610        C  0.21446720  0.06317021  0.05231389    -0.06000
C611        C  0.20224306  0.04984283  0.05643233    -0.21100
C612        C  0.19106226  0.04630903  0.01248006     0.24600
C613        C  0.19209688  0.05679412  0.96480892    -0.18600
C614        C  0.20444464  0.06990459  0.96047383    -0.08600
C615        C  0.17825535  0.03195814  0.01837126    -0.18900
C616        C  0.17076261  0.02412115  0.97500867    -0.23700
C617        C  0.15784831  0.00977456  0.97853925     0.26700
C618        C  0.15130436  0.00313460  0.92909914    -0.20500
C619        C  0.13911743  0.98979107  0.92933032    -0.10100
C620        C  0.13309998  0.98266569  0.97917008    -0.10700
C621        C  0.13962804  0.98922835  0.02878796    -0.03600
C622        C  0.15182840  0.00261955  0.02859442    -0.18700
H623        H  0.22299245  0.06555307  0.08660571     0.10400
H624        H  0.20159858  0.04217940  0.09395863     0.10500
H625        H  0.18325033  0.05520765  0.93099233     0.10100
H626        H  0.20482235  0.07783719  0.92347494     0.11200
H627        H  0.17546230  0.02753762  0.05985370     0.11300
H628        H  0.17444740  0.02817275  0.93379242     0.13200
H629        H  0.15562013  0.00832691  0.88985097     0.09700
H630        H  0.13439947  0.98507597  0.89032220     0.11800
H631        H  0.13528488  0.98402998  0.06797183     0.08500
H632        H  0.15635806  0.00719667  0.06783605     0.11200
C633        C  0.25919424  0.10249036  0.10570269    -0.03400
C634        C  0.25215726  0.11117923  0.15127825    -0.06000
C635        C  0.26175578  0.11286674  0.19973081    -0.21100
C636        C  0.27839629  0.10563667  0.20376985     0.24600
C637        C  0.28509502  0.09636851  0.15865676    -0.18600
C638        C  0.27557983  0.09478759  0.11037725    -0.08600
C639        C  0.28909284  0.10925247  0.25309995    -0.18900
C640        C  0.30242962  0.09903237  0.26847214    -0.23700
C641        C  0.31481409  0.10341384  0.31276660     0.26700
C642        C  0.32486950  0.08999259  0.33561335    -0.20500
C643        C  0.33768497  0.09359802  0.37406048    -0.10100
C644        C  0.34089697  0.11078904  0.39022823    -0.10700
C645        C  0.33075975  0.12426206  0.36768984    -0.03600
C646        C  0.31786132  0.12063541  0.32932052    -0.18700
H647        H  0.23963682  0.11742009  0.14849647     0.10400
H648        H  0.25634956  0.12019750  0.23365559     0.10500
H649        H  0.29800969  0.09100579  0.15925544     0.10100
H650        H  0.28128215  0.08794526  0.07592437     0.11200
H651        H  0.28590209  0.12071935  0.27695488     0.11300
H652        H  0.30447424  0.08672864  0.24773596     0.13200
H653        H  0.32292084  0.07664141  0.32321441     0.09700
H654        H  0.34523662  0.08289999  0.39054853     0.11800
H655        H  0.33293211  0.13765403  0.37915462     0.08500
H656        H  0.31073964  0.13140403  0.31154699     0.11200
C657        C  0.34306074  0.11768254  0.62026499    -0.03400
C658        C  0.34007311  0.10162273  0.64642456    -0.06000
C659        C  0.32708368  0.09993024  0.68597443    -0.21100
C660        C  0.31679211  0.11422452  0.70076790     0.24600
C661        C  0.31975459  0.13037083  0.67477815    -0.18600
C662        C  0.33279889  0.13206964  0.63500643    -0.08600
C663        C  0.30284927  0.11138089  0.74201123    -0.18900
C664        C  0.29502393  0.12409706  0.77090974    -0.23700
C665        C  0.28187149  0.12031417  0.81404531     0.26700
C666        C  0.28008715  0.13158074  0.85883206    -0.20500
C667        C  0.26874191  0.12763321  0.90200671    -0.10100
C668        C  0.25883367  0.11231790  0.90154120    -0.10700
C669        C  0.25996336  0.10158652  0.85481327    -0.03600
C670        C  0.27126716  0.10557595  0.81167167    -0.18700
H671        H  0.34768179  0.09025256  0.63602619     0.10400
H672        H  0.32505067  0.08732844  0.70508113     0.10500
H673        H  0.31184786  0.14161184  0.68395864     0.10100
H674        H  0.33466969  0.14458532  0.61522821     0.11200
H675        H  0.29959847  0.09794653  0.75110710     0.11300
H676        H  0.29922277  0.13745808  0.76615582     0.13200
H677        H  0.28789167  0.14318813  0.86129355     0.09700
H678        H  0.26805602  0.13632490  0.93686402     0.11800
H679        H  0.25249115  0.08991666  0.85081554     0.08500
H680        H  0.27168960  0.09699963  0.77656034     0.11200
C681        C  0.57785345  0.14640043  0.88155634    -0.03400
C682        C  0.58339408  0.16252979  0.86047988    -0.06000
C683        C  0.59630276  0.16331193  0.82006448    -0.21100
C684        C  0.60402986  0.14803431  0.80024374     0.24600
C685        C  0.59821477  0.13189457  0.82061588    -0.18600
C686        C  0.58538133  0.13111462  0.86097997    -0.08600
C687        C  0.61760288  0.14923270  0.75692319    -0.18900
C688        C  0.62957529  0.13670104  0.74984355    -0.23700
C689        C  0.64220364  0.13627418  0.70387211     0.26700
C690        C  0.64857358  0.11999700  0.68782572    -0.20500
C691        C  0.66045515  0.11858465  0.64497135    -0.10100
C692        C  0.66651294  0.13347980  0.61739985    -0.10700
C693        C  0.66034980  0.14989574  0.63378528    -0.03600
C694        C  0.64822568  0.15129965  0.67661625    -0.18700
H695        H  0.57774956  0.17455664  0.87514066     0.10400
H696        H  0.60035195  0.17588660  0.80451133     0.10500
H697        H  0.60322317  0.11976301  0.80477208     0.10100
H698        H  0.58122988  0.11847381  0.87562986     0.11200
H699        H  0.61752691  0.16058381  0.73012944     0.11300
H700        H  0.62972761  0.12558817  0.77760001     0.13200
H701        H  0.64419564  0.10824087  0.70825222     0.09700
H702        H  0.66496972  0.10573682  0.63369629     0.11800
H703        H  0.66484859  0.16160987  0.61346329     0.08500
H704        H  0.64386535  0.16410040  0.68877353     0.11200
C705        C  0.57419078  0.14682275  0.11932331    -0.03400
C706        C  0.58141273  0.16264533  0.13608233    -0.06000
C707        C  0.59358055  0.16296888  0.17867676    -0.21100
C708        C  0.59880259  0.14751736  0.20523314     0.24600
C709        C  0.59099325  0.13181715  0.18980109    -0.18600
C710        C  0.57899647  0.13147934  0.14719911    -0.08600
C711        C  0.61226170  0.14817882  0.24893732    -0.18900
C712        C  0.62213171  0.13429150  0.26257770    -0.23700
C713        C  0.63582281  0.13406502  0.30545788     0.26700
C714        C  0.64205563  0.11781913  0.32336002    -0.20500
C715        C  0.65531276  0.11661434  0.36190067    -0.10100
C716        C  0.66285739  0.13166738  0.38338947    -0.10700
C717        C  0.65665638  0.14799632  0.36569127    -0.03600
C718        C  0.64325923  0.14921134  0.32717102    -0.18700
H719        H  0.57786216  0.17471594  0.11579423     0.10400
H720        H  0.59916298  0.17528906  0.19025496     0.10500
H721        H  0.59390522  0.11971059  0.21071818     0.10100
H722        H  0.57341576  0.11910071  0.13625745     0.11200
H723        H  0.61424929  0.16053859  0.26907349     0.11300
H724        H  0.62025990  0.12215782  0.24099662     0.13200
H725        H  0.63665185  0.10592736  0.30732405     0.09700
H726        H  0.65974814  0.10382181  0.37449247     0.11800
H727        H  0.66218822  0.15984846  0.38149236     0.08500
H728        H  0.63910682  0.16199892  0.31390803     0.11200
C729        C  0.93837397  0.96980581  0.95602381    -0.03400
C730        C  0.93509711  0.97889358  0.90674912    -0.06000
C731        C  0.92146253  0.99082359  0.90338358    -0.21100
C732        C  0.91061441  0.99380430  0.94882987     0.24600
C733        C  0.91381724  0.98458483  0.99810968    -0.18600
C734        C  0.92755272  0.97274534  0.00158508    -0.08600
C735        C  0.89696444  0.00744449  0.94398798    -0.18900
C736        C  0.88350576  0.00909761  0.97899219    -0.23700
C737        C  0.87133758  0.02412714  0.97739905     0.26700
C738        C  0.86362573  0.02956462  0.02670148    -0.20500
C739        C  0.85363096  0.04474010  0.02843674    -0.10100
C740        C  0.85051365  0.05461591  0.98035838    -0.10700
C741        C  0.85787294  0.04875079  0.93057674    -0.03600
C742        C  0.86793056  0.03360525  0.92893257    -0.18700
H743        H  0.94324806  0.97699953  0.87095161     0.10400
H744        H  0.91944378  0.99784439  0.86511051     0.10500
H745        H  0.90614929  0.98675895  0.03467857     0.10100
H746        H  0.92974499  0.96593840  0.04011801     0.11200
H747        H  0.89851541  0.01685450  0.91087358     0.11300
H748        H  0.88190471  0.99986370  0.01251184     0.13200
H749        H  0.86612500  0.02256749  0.06472473     0.09700
H750        H  0.84918575  0.04915849  0.06821540     0.11800
H751        H  0.85661216  0.05629811  0.89306528     0.08500
H752        H  0.87332766  0.02964045  0.88982346     0.11200
C753        C  0.73915390  0.12188345  0.60697053    -0.03400
C754        C  0.74543760  0.10515614  0.61950580    -0.06000
C755        C  0.75865279  0.10280592  0.65765859    -0.21100
C756        C  0.76578072  0.11704141  0.68505572     0.24600
C757        C  0.75959914  0.13385935  0.67260394    -0.18600
C758        C  0.74644129  0.13624959  0.63370603    -0.08600
C759        C  0.77990929  0.11361023  0.72492596    -0.18900
C760        C  0.78370436  0.12391353  0.76785002    -0.23700
C761        C  0.79675218  0.11872681  0.80975970     0.26700
C762        C  0.79437681  0.12362195  0.86488718    -0.20500
C763        C  0.80541340  0.11727842  0.90601799    -0.10100
C764        C  0.81910038  0.10600852  0.89260658    -0.10700
C765        C  0.82214722  0.10208347  0.83699540    -0.03600
C766        C  0.81115400  0.10840953  0.79601160    -0.18700
H767        H  0.74023111  0.09380973  0.59946033     0.10400
H768        H  0.76324225  0.08973127  0.66615361     0.10500
H769        H  0.76506822  0.14517134  0.69202333     0.10100
H770        H  0.74192985  0.14931150  0.62474437     0.11200
H771        H  0.78657318  0.10121680  0.72109548     0.11300
H772        H  0.77600089  0.13548447  0.77545920     0.13200
H773        H  0.78350311  0.13172294  0.87648793     0.09700
H774        H  0.80269310  0.12050201  0.94850014     0.11800
H775        H  0.83288781  0.09383337  0.82523517     0.08500
H776        H  0.81383595  0.10499068  0.75367932     0.11200
C777        C  0.73636252  0.11906734  0.37519916    -0.03400
C778        C  0.74181842  0.10193631  0.36498408    -0.06000
C779        C  0.75383817  0.09840173  0.32371269    -0.21100
C780        C  0.76072459  0.11182801  0.29115095     0.24600
C781        C  0.75547196  0.12908622  0.30172762    -0.18600
C782        C  0.74344641  0.13264713  0.34354875    -0.08600
C783        C  0.77284675  0.10682345  0.24615533    -0.18900
C784        C  0.78040215  0.11787809  0.21026343    -0.23700
C785        C  0.79168678  0.11163984  0.16473505     0.26700
C786        C  0.80486975  0.12240936  0.14456099    -0.20500
C787        C  0.81583910  0.11669888  0.10238031    -0.10100
C788        C  0.81370936  0.10014931  0.07920883    -0.10700
C789        C  0.80019381  0.08959870  0.09828655    -0.03600
C790        C  0.78926793  0.09528470  0.14034606    -0.18700
H791        H  0.73676432  0.09115226  0.38887277     0.10400
H792        H  0.75762085  0.08500393  0.31681492     0.10500
H793        H  0.76037991  0.13989131  0.27788302     0.10100
H794        H  0.73951351  0.14598565  0.35055809     0.11200
H795        H  0.77568309  0.09303602  0.24253845     0.11300
H796        H  0.77880321  0.13180130  0.21461269     0.13200
H797        H  0.80689754  0.13512905  0.16222600     0.09700
H798        H  0.82622937  0.12508371  0.08894078     0.11800
H799        H  0.79790161  0.07699295  0.08023428     0.08500
H800        H  0.77878348  0.08691434  0.15296964     0.11200
C801        C  0.50593335  0.81691375  0.89943013    -0.03400
C802        C  0.50055702  0.80118576  0.87618937    -0.06000
C803        C  0.48707944  0.80088568  0.83856586    -0.21100
C804        C  0.47846023  0.81623615  0.82331334     0.24600
C805        C  0.48362451  0.83205235  0.84701819    -0.18600
C806        C  0.49728382  0.83236480  0.88470316    -0.08600
C807        C  0.46483239  0.81488459  0.78074220    -0.18900
C808        C  0.45311676  0.82730990  0.76851722    -0.23700
C809        C  0.44007497  0.82502219  0.72438817     0.26700
C810        C  0.43332934  0.83973901  0.69737911    -0.20500
C811        C  0.42167614  0.83793378  0.65392011    -0.10100
C812        C  0.41651357  0.82133624  0.63676175    -0.10700
C813        C  0.42280717  0.80665624  0.66505392    -0.03600
C814        C  0.43430068  0.80846080  0.70863039    -0.18700
H815        H  0.50691798  0.78902938  0.88650284     0.10400
H816        H  0.48343348  0.78853145  0.82099305     0.10500
H817        H  0.47751778  0.84423080  0.83587020     0.10100
H818        H  0.50111289  0.84467716  0.90209082     0.11200
H819        H  0.46468627  0.80283514  0.75780358     0.11300
H820        H  0.45333355  0.83967806  0.78963413     0.13200
H821        H  0.43736594  0.85264744  0.70916863     0.09700
H822        H  0.41693785  0.84950997  0.63320737     0.11800
H823        H  0.41879600  0.79370510  0.65366897     0.08500
H824        H  0.43848067  0.79680762  0.72998025     0.11200
C825        C  0.51142709  0.81789851  0.13158827    -0.03400
C826        C  0.50670526  0.80242817  0.15854694    -0.06000
C827        C  0.49396322  0.80246951  0.19917543    -0.21100
C828        C  0.48554516  0.81793824  0.21419264     0.24600
C829        C  0.49049642  0.83358467  0.18813890    -0.18600
C830        C  0.50336077  0.83354008  0.14729981    -0.08600
C831        C  0.47145105  0.81665313  0.25585674    -0.18900
C832        C  0.46349976  0.83016902  0.28062667    -0.23700
C833        C  0.44968135  0.82768865  0.32282724     0.26700
C834        C  0.43761625  0.84106508  0.33215835    -0.20500
C835        C  0.42435262  0.83895105  0.37104447    -0.10100
C836        C  0.42292495  0.82338638  0.40137994    -0.10700
C837        C  0.43521660  0.81018998  0.39288264    -0.03600
C838        C  0.44850578  0.81235601  0.35462126    -0.18700
H839        H  0.51272754  0.79016327  0.14783575     0.10400
H840        H  0.49053648  0.79023598  0.21861197     0.10500
H841        H  0.48431153  0.84580220  0.19795672     0.10100
H842        H  0.50670044  0.84567678  0.12715893     0.11200
H843        H  0.46735840  0.80356781  0.26619398     0.11300
H844        H  0.46682003  0.84340028  0.26943515     0.13200
H845        H  0.43832166  0.85308786  0.30878198     0.09700
H846        H  0.41508785  0.84937565  0.37676204     0.11800
H847        H  0.43467296  0.79815601  0.41624211     0.08500
H848        H  0.45793256  0.80202133  0.35092360     0.11200
C849        C  0.22092052  0.82355913  0.97837339    -0.03400
C850        C  0.22564292  0.84114089  0.97936735    -0.06000
C851        C  0.21372002  0.85404926  0.96550567    -0.21100
C852        C  0.19677607  0.84960578  0.95203578     0.24600
C853        C  0.19222196  0.83197021  0.94863840    -0.18600
C854        C  0.20434468  0.81900944  0.96093076    -0.08600
C855        C  0.18399675  0.86369118  0.94455817    -0.18900
C856        C  0.16806657  0.86264823  0.96622972    -0.23700
C857        C  0.15632956  0.87784627  0.96863765     0.26700
C858        C  0.14516198  0.87954857  0.01387909    -0.20500
C859        C  0.13433807  0.89405409  0.01843774    -0.10100
C860        C  0.13420122  0.90686154  0.97700936    -0.10700
C861        C  0.14517220  0.90502016  0.93125050    -0.03600
C862        C  0.15621857  0.89069287  0.92719630    -0.18700
H863        H  0.23850327  0.84488807  0.99161199     0.10400
H864        H  0.21750535  0.86756735  0.96777172     0.10500
H865        H  0.17928744  0.82824387  0.93717457     0.10100
H866        H  0.20057801  0.80549249  0.95894452     0.11200
H867        H  0.18855290  0.87599543  0.92795019     0.11300
H868        H  0.16427994  0.85092569  0.98833661     0.13200
H869        H  0.14495787  0.86972094  0.04604818     0.09700
H870        H  0.12572819  0.89500849  0.05352745     0.11800
H871        H  0.14513376  0.91462922  0.89843255     0.08500
H872        H  0.16440207  0.88953815  0.89118306     0.11200
C873        C  0.34514665  0.80537919  0.61535860    -0.03400
C874        C  0.34200955  0.78812759  0.63183936    -0.06000
C875        C  0.32892849  0.78427998  0.66944548    -0.21100
C876        C  0.31855571  0.79750946  0.69156944     0.24600
C877        C  0.32146608  0.81482000  0.67458068    -0.18600
C878        C  0.33462007  0.81868796  0.63669856    -0.08600
C879        C  0.30599782  0.79263080  0.73539884    -0.18900
C880        C  0.29341124  0.80307467  0.75487451    -0.23700
C881        C  0.28286225  0.79844254  0.80412343     0.26700
C882        C  0.26679563  0.80657506  0.81226587    -0.20500
C883        C  0.25746590  0.80384959  0.86106099    -0.10100
C884        C  0.26420286  0.79314733  0.90288905    -0.10700
C885        C  0.27996432  0.78457045  0.89406761    -0.03600
C886        C  0.28922578  0.78720719  0.84541800    -0.18700
H887        H  0.34981929  0.77752492  0.61620747     0.10400
H888        H  0.32708820  0.77086492  0.68197842     0.10500
H889        H  0.31404674  0.82547760  0.69144248     0.10100
H890        H  0.33672349  0.83211281  0.62484054     0.11200
H891        H  0.30737816  0.77965766  0.75274400     0.11300
H892        H  0.29076160  0.81544967  0.73488533     0.13200
H893        H  0.26167730  0.81541584  0.78143564     0.09700
H894        H  0.24546590  0.81084726  0.86727247     0.11800
H895        H  0.28543567  0.77627149  0.92575969     0.08500
H896        H  0.30175368  0.78107917  0.84183615     0.11200
C897        C  0.26633966  0.80036866  0.10644365    -0.03400
C898        C  0.27612168  0.81576203  0.10568712    -0.06000
C899        C  0.28788724  0.81929906  0.14724407    -0.21100
C900        C  0.29053414  0.80739207  0.19022200     0.24600
C901        C  0.28057753  0.79214284  0.19209011    -0.18600
C902        C  0.26862915  0.78864846  0.15062937    -0.08600
C903        C  0.30369217  0.81146379  0.23230264    -0.18900
C904        C  0.31204937  0.79915228  0.26163819    -0.23700
C905        C  0.32559689  0.80288220  0.30301824     0.26700
C906        C  0.33577499  0.78900075  0.32233406    -0.20500
C907        C  0.34823653  0.79162071  0.36270798    -0.10100
C908        C  0.35079419  0.80823059  0.38485150    -0.10700
C909        C  0.34076832  0.82219592  0.36520038    -0.03600
C910        C  0.32825159  0.81957052  0.32494870    -0.18700
H911        H  0.27482107  0.82501169  0.07210229     0.10400
H912        H  0.29527007  0.83120799  0.14502718     0.10500
H913        H  0.28189440  0.78289344  0.22557108     0.10100
H914        H  0.26164310  0.77658433  0.15321406     0.11200
H915        H  0.30726432  0.82499864  0.23624436     0.11300
H916        H  0.30934949  0.78556615  0.25369660     0.13200
H917        H  0.33399319  0.77600993  0.30641298     0.09700
H918        H  0.35571853  0.78056675  0.37702430     0.11800
H919        H  0.34235266  0.83513806  0.38167535     0.08500
H920        H  0.32050324  0.83061498  0.31252711     0.11200
C921        C  0.67136924  0.78677565  0.37410729    -0.03400
C922        C  0.66264908  0.77259279  0.35128666    -0.06000
C923        C  0.65109390  0.77509871  0.30802786    -0.21100
C924        C  0.64783942  0.79182047  0.28692645     0.24600
C925        C  0.65678943  0.80601098  0.30899208    -0.18600
C926        C  0.66841761  0.80349564  0.35220642    -0.08600
C927        C  0.63512264  0.79374481  0.24179950    -0.18900
C928        C  0.62616060  0.80848219  0.23153717    -0.23700
C929        C  0.61225994  0.80969114  0.18965586     0.26700
C930        C  0.60719985  0.82612631  0.16963834    -0.20500
C931        C  0.59372747  0.82776411  0.13167193    -0.10100
C932        C  0.58498476  0.81295585  0.11328576    -0.10700
C933        C  0.59000994  0.79654592  0.13358942    -0.03600
C934        C  0.60336962  0.79492104  0.17146413    -0.18700
H935        H  0.66466832  0.75953199  0.36701477     0.10400
H936        H  0.64445662  0.76393514  0.29151893     0.10500
H937        H  0.65504755  0.81902210  0.29272219     0.10100
H938        H  0.67506205  0.81467008  0.36853739     0.11200
H939        H  0.63263587  0.78220265  0.21778548     0.11300
H940        H  0.62875305  0.82008122  0.25520755     0.13200
H941        H  0.61369019  0.83773578  0.18345625     0.09700
H942        H  0.59012495  0.84059407  0.11694534     0.11800
H943        H  0.58344816  0.78486283  0.12079528     0.08500
H944        H  0.60627145  0.78207096  0.18726123     0.11200
C945        C  0.57986784  0.81280786  0.88085705    -0.03400
C946        C  0.58692179  0.82780857  0.85641755    -0.06000
C947        C  0.59949260  0.82642981  0.81502548    -0.21100
C948        C  0.60520594  0.81006580  0.79683185     0.24600
C949        C  0.59815001  0.79506621  0.82147523    -0.18600
C950        C  0.58559960  0.79644195  0.86267975    -0.08600
C951        C  0.61913426  0.80912797  0.75439109    -0.18900
C952        C  0.62193239  0.79503163  0.72268096    -0.23700
C953        C  0.63645701  0.79311353  0.68271778     0.26700
C954        C  0.64052945  0.77634434  0.66395828    -0.20500
C955        C  0.65410564  0.77363052  0.62693747    -0.10100
C956        C  0.66394863  0.78766844  0.60736017    -0.10700
C957        C  0.65977663  0.80452435  0.62546819    -0.03600
C958        C  0.64616745  0.80724897  0.66263003    -0.18700
H959        H  0.58285267  0.84061943  0.86959475     0.10400
H960        H  0.60481171  0.83820059  0.79722722     0.10500
H961        H  0.60257582  0.78219778  0.81043205     0.10100
H962        H  0.58060029  0.78460955  0.88098633     0.11200
H963        H  0.62731870  0.82043198  0.74993236     0.11300
H964        H  0.61340941  0.78396430  0.72683583     0.13200
H965        H  0.63325775  0.76521315  0.67844016     0.09700
H966        H  0.65691668  0.76048234  0.61382553     0.11800
H967        H  0.66701155  0.81565166  0.61083388     0.08500
H968        H  0.64326342  0.82044268  0.67471834     0.11200
C969        C  0.86620673  0.80279223  0.00402868    -0.03400
C970        C  0.87198187  0.80970875  0.05388066    -0.06000
C971        C  0.88491193  0.82237067  0.05411938    -0.21100
C972        C  0.89240753  0.82829147  0.00461629     0.24600
C973        C  0.88697083  0.82085853  0.95487151    -0.18600
C974        C  0.87398315  0.80836815  0.95465980    -0.08600
C975        C  0.90588483  0.84204435  0.00680640    -0.18900
C976        C  0.91068508  0.85182014  0.96293235    -0.23700
C977        C  0.92336146  0.86632282  0.96478922     0.26700
C978        C  0.92941439  0.87335746  0.91475593    -0.20500
C979        C  0.94054970  0.88762509  0.91399479    -0.10100
C980        C  0.94584394  0.89525846  0.96340163    -0.10700
C981        C  0.93996533  0.88811778  0.01350481    -0.03600
C982        C  0.92884811  0.87387636  0.01429460    -0.18700
H983        H  0.86634377  0.80551900  0.09256689     0.10400
H984        H  0.88896058  0.82768634  0.09313554     0.10500
H985        H  0.89281471  0.82431786  0.91590582     0.10100
H986        H  0.87030049  0.80276552  0.91569640     0.11200
H987        H  0.91159873  0.84436495  0.04666278     0.11300
H988        H  0.90482957  0.84951718  0.92327557     0.13200
H989        H  0.92539769  0.86786753  0.87594703     0.09700
H990        H  0.94489614  0.89274431  0.87471348     0.11800
H991        H  0.94381775  0.89364905  0.05241030     0.08500
H992        H  0.92435216  0.86924888  0.05385944     0.11200
C993        C  0.82708524  0.77032788  0.11823906    -0.03400
C994        C  0.83004290  0.78381634  0.15540174    -0.06000
C995        C  0.82102409  0.78433248  0.20554975    -0.21100
C996        C  0.80904224  0.77130396  0.21955146     0.24600
C997        C  0.80704170  0.75721483  0.18336737    -0.18600
C998        C  0.81595793  0.75678821  0.13339521    -0.08600
C999        C  0.79760823  0.77393505  0.26849823    -0.18900
C1000       C  0.78633847  0.76198035  0.28772287    -0.23700
C1001       C  0.77254605  0.76563376  0.32909536     0.26700
C1002       C  0.76363013  0.75153885  0.35261648    -0.20500
C1003       C  0.74951735  0.75428136  0.38764056    -0.10100
C1004       C  0.74395162  0.77123657  0.39998496    -0.10700
C1005       C  0.75300130  0.78536165  0.37717428    -0.03600
C1006       C  0.76705518  0.78262720  0.34192929    -0.18700
H1007       H  0.83845379  0.79447634  0.14418889     0.10400
H1008       H  0.82283585  0.79536555  0.23236031     0.10500
H1009       H  0.79795854  0.74691377  0.19135143     0.10100
H1010       H  0.81353513  0.74623473  0.10517442     0.11200
H1011       H  0.79806205  0.78661064  0.28767366     0.11300
H1012       H  0.78675105  0.74886771  0.27180738     0.13200
H1013       H  0.76744127  0.73830959  0.34320193     0.09700
H1014       H  0.74290859  0.74310388  0.40477406     0.11800
H1015       H  0.74902266  0.79859563  0.38571404     0.08500
H1016       H  0.77312428  0.79390643  0.32372013     0.11200
C1017       C  0.73643361  0.77170261  0.62714214    -0.03400
C1018       C  0.73723931  0.75565092  0.65510474    -0.06000
C1019       C  0.74946149  0.75282982  0.69637394    -0.21100
C1020       C  0.76101349  0.76600380  0.71059099     0.24600
C1021       C  0.76041181  0.78193980  0.68182997    -0.18600
C1022       C  0.74816873  0.78478842  0.64086986    -0.08600
C1023       C  0.77373008  0.76274406  0.75487070    -0.18900
C1024       C  0.77977141  0.77566942  0.78624328    -0.23700
C1025       C  0.79242171  0.77320447  0.83109728     0.26700
C1026       C  0.79337384  0.78605354  0.87143634    -0.20500
C1027       C  0.80554660  0.78486635  0.91316873    -0.10100
C1028       C  0.81737230  0.77093537  0.91535160    -0.10700
C1029       C  0.81627944  0.75787101  0.87512761    -0.03600
C1030       C  0.80395313  0.75903031  0.83331947    -0.18700
H1031       H  0.72842179  0.74527589  0.64514577     0.10400
H1032       H  0.74979171  0.74039840  0.71760775     0.10500
H1033       H  0.76955818  0.79215664  0.69012065     0.10100
H1034       H  0.74809969  0.79716103  0.61929766     0.11200
H1035       H  0.77739145  0.74936759  0.76356347     0.11300
H1036       H  0.77464155  0.78872476  0.78059133     0.13200
H1037       H  0.78467343  0.79712496  0.87061617     0.09700
H1038       H  0.80591566  0.79505854  0.94371132     0.11800
H1039       H  0.82480846  0.74675379  0.87508740     0.08500
H1040       H  0.80381364  0.74903269  0.80223038     0.11200
C1041       C  0.83539547  0.39453082  0.12346972    -0.03400
C1042       C  0.85112282  0.38695191  0.13956933    -0.06000
C1043       C  0.85153065  0.37369537  0.17906622    -0.21100
C1044       C  0.83628421  0.36770088  0.20386358     0.24600
C1045       C  0.82046961  0.37518420  0.18760442    -0.18600
C1046       C  0.82005908  0.38847210  0.14783099    -0.08600
C1047       C  0.83769539  0.35340177  0.24522627    -0.18900
C1048       C  0.82519271  0.34881268  0.28118256    -0.23700
C1049       C  0.82754432  0.33463106  0.32253157     0.26700
C1050       C  0.81305614  0.32567236  0.34259891    -0.20500
C1051       C  0.81492560  0.31206974  0.38084394    -0.10100
C1052       C  0.83135437  0.30725526  0.40002299    -0.10700
C1053       C  0.84578115  0.31654485  0.38098082    -0.03600
C1054       C  0.84391125  0.33011626  0.34305738    -0.18700
H1055       H  0.86318670  0.39123206  0.12157232     0.10400
H1056       H  0.86388557  0.36813674  0.19048456     0.10500
H1057       H  0.80836389  0.37072007  0.20456279     0.10100
H1058       H  0.80771791  0.39395813  0.13604575     0.11200
H1059       H  0.84987974  0.34640800  0.24606072     0.11300
H1060       H  0.81275833  0.35530204  0.28018396     0.13200
H1061       H  0.80027876  0.32906068  0.32808387     0.09700
H1062       H  0.80353868  0.30528802  0.39514918     0.11800
H1063       H  0.85859749  0.31343059  0.39571021     0.08500
H1064       H  0.85533107  0.33717242  0.33072279     0.11200
C1065       C  0.83208367  0.39656308  0.88951489    -0.03400
C1066       C  0.81609263  0.39158358  0.86787421    -0.06000
C1067       C  0.81522210  0.37883805  0.82717464    -0.21100
C1068       C  0.83026289  0.37069260  0.80756694     0.24600
C1069       C  0.84630294  0.37599107  0.82838575    -0.18600
C1070       C  0.84716850  0.38870430  0.86900948    -0.08600
C1071       C  0.82870246  0.35704983  0.76476218    -0.18900
C1072       C  0.84108370  0.34512400  0.75463770    -0.23700
C1073       C  0.83981911  0.33170167  0.71130494     0.26700
C1074       C  0.85513513  0.32492806  0.68907841    -0.20500
C1075       C  0.85469270  0.31214142  0.64865369    -0.10100
C1076       C  0.83887732  0.30564813  0.62999405    -0.10700
C1077       C  0.82349842  0.31223249  0.65277692    -0.03600
C1078       C  0.82394502  0.32514772  0.69305442    -0.18700
H1079       H  0.80423664  0.39750057  0.88244057     0.10400
H1080       H  0.80272288  0.37518720  0.81137515     0.10500
H1081       H  0.85829226  0.37063681  0.81308331     0.10100
H1082       H  0.85971472  0.39237973  0.88432395     0.11200
H1083       H  0.81684238  0.35681780  0.74125005     0.11300
H1084       H  0.85294853  0.34525357  0.77802535     0.13200
H1085       H  0.86752176  0.32965949  0.70275907     0.09700
H1086       H  0.86678206  0.30730480  0.63217330     0.11800
H1087       H  0.81111154  0.30740976  0.63950816     0.08500
H1088       H  0.81188104  0.32967399  0.71042762     0.11200
C1089       C  0.91372646  0.12388667  0.02719045    -0.03400
C1090       C  0.92051364  0.11713840  0.07672096    -0.06000
C1091       C  0.93559139  0.10708614  0.07662926    -0.21100
C1092       C  0.94392712  0.10310771  0.02697175     0.24600
C1093       C  0.93793800  0.11075139  0.97801116    -0.18600
C1094       C  0.92290647  0.12075705  0.97800158    -0.08600
C1095       C  0.95787652  0.08987036  0.02683672    -0.18900
C1096       C  0.96002747  0.07872024  0.98472885    -0.23700
C1097       C  0.97267717  0.06420665  0.98475216     0.26700
C1098       C  0.97797599  0.05724860  0.93410714    -0.20500
C1099       C  0.98979419  0.04348411  0.93217241    -0.10100
C1100       C  0.99638023  0.03626263  0.98102746    -0.10700
C1101       C  0.99068685  0.04290353  0.03178407    -0.03600
C1102       C  0.97894858  0.05670336  0.03369520    -0.18700
H1103       H  0.91355860  0.11849320  0.11514989     0.10400
H1104       H  0.94002548  0.10136004  0.11493887     0.10500
H1105       H  0.94438473  0.10837692  0.93915959     0.10100
H1106       H  0.91790124  0.12495086  0.93860148     0.11200
H1107       H  0.96561287  0.08855933  0.06372752     0.11300
H1108       H  0.95200993  0.08005217  0.94841055     0.13200
H1109       H  0.97311538  0.06263680  0.89584773     0.09700
H1110       H  0.99387276  0.03861196  0.89244573     0.11800
H1111       H  0.99541931  0.03754463  0.07022660     0.08500
H1112       H  0.97468377  0.06121968  0.07357156     0.11200
C1113       C  0.83829988  0.23230984  0.39519806    -0.03400
C1114       C  0.82623994  0.21874175  0.39643060    -0.06000
C1115       C  0.82715477  0.20536257  0.35768655    -0.21100
C1116       C  0.83980141  0.20561054  0.31620527     0.24600
C1117       C  0.85173336  0.21931415  0.31469804    -0.18600
C1118       C  0.85103998  0.23245916  0.35399054    -0.08600
C1119       C  0.84108204  0.19096968  0.27696344    -0.18900
C1120       C  0.84647659  0.19327508  0.22473170    -0.23700
C1121       C  0.85001096  0.17880950  0.18617051     0.26700
C1122       C  0.84972555  0.18227952  0.12939114    -0.20500
C1123       C  0.85517072  0.16969980  0.09185230    -0.10100
C1124       C  0.86140191  0.15358695  0.11058638    -0.10700
C1125       C  0.86129708  0.14984512  0.16714187    -0.03600
C1126       C  0.85549299  0.16230092  0.20473546    -0.18700
H1127       H  0.81641154  0.21823686  0.42820543     0.10400
H1128       H  0.81797576  0.19481308  0.36003636     0.10500
H1129       H  0.86194702  0.21962793  0.28419641     0.10100
H1130       H  0.86052537  0.24273837  0.35224926     0.11200
H1131       H  0.83733135  0.17812682  0.29131267     0.11300
H1132       H  0.84852021  0.20641350  0.20937642     0.13200
H1133       H  0.84575385  0.19494670  0.11414280     0.09700
H1134       H  0.85544486  0.17291802  0.04836811     0.11800
H1135       H  0.86624694  0.13751285  0.18221573     0.08500
H1136       H  0.85626842  0.15931353  0.24824052     0.11200
C1137       C  0.84640959  0.23242389  0.62869478    -0.03400
C1138       C  0.86341455  0.22744115  0.64093506    -0.06000
C1139       C  0.86683351  0.21585012  0.68383823    -0.21100
C1140       C  0.85340197  0.20889177  0.71578870     0.24600
C1141       C  0.83627849  0.21357978  0.70303207    -0.18600
C1142       C  0.83284034  0.22521924  0.65974450    -0.08600
C1143       C  0.85823964  0.19750468  0.76296950    -0.18900
C1144       C  0.84715265  0.18911244  0.79655346    -0.23700
C1145       C  0.85337842  0.17856745  0.84393048     0.26700
C1146       C  0.84413385  0.16382076  0.86093205    -0.20500
C1147       C  0.85036624  0.15322485  0.90357484    -0.10100
C1148       C  0.86590459  0.15729306  0.92991317    -0.10700
C1149       C  0.87472870  0.17244177  0.91454928    -0.03600
C1150       C  0.86848019  0.18304232  0.87232225    -0.18700
H1151       H  0.87419200  0.23269610  0.61785467     0.10400
H1152       H  0.88013734  0.21251428  0.69260972     0.10500
H1153       H  0.82550722  0.20866350  0.72665560     0.10100
H1154       H  0.81959401  0.22883028  0.65130859     0.11200
H1155       H  0.87196614  0.19586528  0.77015105     0.11300
H1156       H  0.83342944  0.18926293  0.78842858     0.13200
H1157       H  0.83235175  0.16023683  0.84018912     0.09700
H1158       H  0.84332652  0.14158687  0.91474193     0.11800
H1159       H  0.88645039  0.17614344  0.93539448     0.08500
H1160       H  0.87549916  0.19476501  0.86216026     0.11200
C1161       C  0.83560742  0.47065584  0.89305002    -0.03400
C1162       C  0.82075978  0.48058141  0.88180626    -0.06000
C1163       C  0.82113482  0.49381045  0.84194645    -0.21100
C1164       C  0.83632908  0.49747116  0.81246088     0.24600
C1165       C  0.85113891  0.48734411  0.82321625    -0.18600
C1166       C  0.85078363  0.47418619  0.86324643    -0.08600
C1167       C  0.83596603  0.51149479  0.76974522    -0.18900
C1168       C  0.85019354  0.51946478  0.74997947    -0.23700
C1169       C  0.85001287  0.53326001  0.70651628     0.26700
C1170       C  0.86546443  0.53693762  0.67853944    -0.20500
C1171       C  0.86607142  0.54975703  0.63749173    -0.10100
C1172       C  0.85121845  0.55933827  0.62351420    -0.10700
C1173       C  0.83577346  0.55585365  0.65193271    -0.03600
C1174       C  0.83516386  0.54301370  0.69307831    -0.18700
H1175       H  0.80885992  0.47819830  0.90401954     0.10400
H1176       H  0.80949949  0.50128350  0.83428252     0.10500
H1177       H  0.86296151  0.48921712  0.80028741     0.10100
H1178       H  0.86239128  0.46662520  0.87038653     0.11200
H1179       H  0.82338125  0.51534149  0.75456957     0.11300
H1180       H  0.86274540  0.51565033  0.76553864     0.13200
H1181       H  0.87713389  0.52975559  0.68820066     0.09700
H1182       H  0.87820610  0.55211360  0.61659501     0.11800
H1183       H  0.82413361  0.56310608  0.64255223     0.08500
H1184       H  0.82309764  0.54105486  0.71457377     0.11200
C1185       C  0.83868587  0.46937957  0.12538475    -0.03400
C1186       C  0.85495015  0.47590551  0.13935542    -0.06000
C1187       C  0.85644021  0.48952562  0.17659348    -0.21100
C1188       C  0.84177311  0.49690282  0.20132135     0.24600
C1189       C  0.82543655  0.49024545  0.18807120    -0.18600
C1190       C  0.82393400  0.47660648  0.15042944    -0.08600
C1191       C  0.84435790  0.51178688  0.23908428    -0.18900
C1192       C  0.83272487  0.51746410  0.27635076    -0.23700
C1193       C  0.83648619  0.53177128  0.31548758     0.26700
C1194       C  0.82277259  0.54117015  0.33906509    -0.20500
C1195       C  0.82592897  0.55450088  0.37672020    -0.10100
C1196       C  0.84290121  0.55860222  0.39185719    -0.10700
C1197       C  0.85658330  0.54907088  0.36864687    -0.03600
C1198       C  0.85344086  0.53577335  0.33130532    -0.18700
H1199       H  0.86658416  0.47067880  0.12085300     0.10400
H1200       H  0.86917592  0.49437827  0.18597794     0.10500
H1201       H  0.81377297  0.49573717  0.20535879     0.10100
H1202       H  0.81120626  0.47189691  0.14036184     0.11200
H1203       H  0.85677210  0.51815777  0.23625203     0.11300
H1204       H  0.82008373  0.51155272  0.27879599     0.13200
H1205       H  0.80958361  0.53822842  0.32816228     0.09700
H1206       H  0.81508840  0.56152691  0.39411904     0.11800
H1207       H  0.86980535  0.55172226  0.37984593     0.08500
H1208       H  0.86438268  0.52843808  0.31618364     0.11200
C1209       C  0.00773019  0.84107108  0.97616663    -0.03400
C1210       C  0.00338050  0.83375428  0.92515671    -0.06000
C1211       C  0.99070055  0.82095141  0.92176524    -0.21100
C1212       C  0.98215779  0.81498510  0.96922083     0.24600
C1213       C  0.98644417  0.82231680  0.02033374    -0.18600
C1214       C  0.99911757  0.83518150  0.02372889    -0.08600
C1215       C  0.96827986  0.80181367  0.96337619    -0.18900
C1216       C  0.96338500  0.79100265  0.00444446    -0.23700
C1217       C  0.94891890  0.77837729  0.00041913     0.26700
C1218       C  0.94768709  0.76503745  0.03997427    -0.20500
C1219       C  0.93354664  0.75379215  0.04111352    -0.10100
C1220       C  0.92012548  0.75565678  0.00261893    -0.10700
C1221       C  0.92178928  0.76860635  0.96156937    -0.03600
C1222       C  0.93583541  0.77992702  0.96075243    -0.18700
H1223       H  0.00966390  0.83803189  0.88757839     0.10400
H1224       H  0.98754589  0.81568380  0.88182500     0.10500
H1225       H  0.97975497  0.81851029  0.05763335     0.10100
H1226       H  0.00198443  0.84069225  0.06353077     0.11200
H1227       H  0.96237561  0.80071246  0.92317542     0.11300
H1228       H  0.97044888  0.79114361  0.04290366     0.13200
H1229       H  0.95760813  0.76347875  0.07089754     0.09700
H1230       H  0.93327962  0.74393494  0.07283689     0.11800
H1231       H  0.91177195  0.77038097  0.93106527     0.08500
H1232       H  0.93597496  0.79019071  0.93013882     0.11200
C1233       C  0.86406048  0.63222797  0.61647171    -0.03400
C1234       C  0.88125171  0.63680525  0.62680921    -0.06000
C1235       C  0.88518108  0.64910658  0.66687318    -0.21100
C1236       C  0.87209018  0.65710458  0.69797904     0.24600
C1237       C  0.85482098  0.65262876  0.68730713    -0.18600
C1238       C  0.85088849  0.64032434  0.64705583    -0.08600
C1239       C  0.87719931  0.67014484  0.74006298    -0.18900
C1240       C  0.86660224  0.67655514  0.77929637    -0.23700
C1241       C  0.87205285  0.68935950  0.82158650     0.26700
C1242       C  0.85929077  0.69891065  0.84947306    -0.20500
C1243       C  0.86369347  0.71069449  0.89064108    -0.10100
C1244       C  0.88101563  0.71325553  0.90504993    -0.10700
C1245       C  0.89381692  0.70363845  0.87735056    -0.03600
C1246       C  0.88941638  0.69178638  0.83632972    -0.18700
H1247       H  0.89172856  0.63088203  0.60390649     0.10400
H1248       H  0.89857877  0.65231705  0.67379630     0.10500
H1249       H  0.84421979  0.65864379  0.70910595     0.10100
H1250       H  0.83750166  0.63713036  0.63998800     0.11200
H1251       H  0.89045404  0.67452737  0.73836320     0.11300
H1252       H  0.85325868  0.67249376  0.78088710     0.13200
H1253       H  0.84581071  0.69724852  0.83936552     0.09700
H1254       H  0.85345942  0.71781468  0.91086218     0.11800
H1255       H  0.90725351  0.70486419  0.88843781     0.08500
H1256       H  0.89966810  0.68427803  0.81761950     0.11200
C1257       C  0.88027429  0.70984417  0.09134607    -0.03400
C1258       C  0.87313299  0.69411640  0.07371247    -0.06000
C1259       C  0.86872399  0.68117272  0.11192887    -0.21100
C1260       C  0.87085816  0.68393187  0.16852476     0.24600
C1261       C  0.87766921  0.69984401  0.18628802    -0.18600
C1262       C  0.88248265  0.71262415  0.14795226    -0.08600
C1263       C  0.86724033  0.66953546  0.20780969    -0.18900
C1264       C  0.86078801  0.67212936  0.25865024    -0.23700
C1265       C  0.85864563  0.65773975  0.29915327     0.26700
C1266       C  0.84479312  0.65805794  0.33653669    -0.20500
C1267       C  0.84314609  0.64508370  0.37701968    -0.10100
C1268       C  0.85562517  0.63183089  0.38181443    -0.10700
C1269       C  0.86948120  0.63155364  0.34431733    -0.03600
C1270       C  0.87092089  0.64428840  0.30323729    -0.18700
H1271       H  0.87142111  0.69164619  0.03023304     0.10400
H1272       H  0.86366943  0.66894856  0.09729377     0.10500
H1273       H  0.87979727  0.70218825  0.22961860     0.10100
H1274       H  0.88788602  0.72470276  0.16248543     0.11200
H1275       H  0.86966659  0.65633817  0.19394367     0.11300
H1276       H  0.85670035  0.68510145  0.27067269     0.13200
H1277       H  0.83525377  0.66837954  0.33442331     0.09700
H1278       H  0.83236526  0.64567915  0.40544074     0.11800
H1279       H  0.87929764  0.62151491  0.34689715     0.08500
H1280       H  0.88195520  0.64390884  0.27580480     0.11200
loop_ 
_geom_bond_atom_site_label_1 
_geom_bond_atom_site_label_2 
_geom_bond_distance 
_geom_bond_site_symmetry_2 
_ccdc_geom_bond_type 
C1            C2   1.547       .  S
C1            C7   1.532       .  S
C1            C5   1.540   1_554  S
C1         C1220   1.531       .  S
C2            H9   1.082       .  S
C2            C3   1.370       .  D
C3            C4   1.538       .  S
C3         C1257   1.482       .  S
C4            C8   1.535       .  S
C4            C6   1.540   1_554  S
C4           H10   1.109       .  S
C5           H11   1.086       .  S
C5            C6   1.370       .  D
C6         C1244   1.492       .  S
C7           H12   1.086       .  S
C7            C8   1.359       .  D
C8           C72   1.474       .  S
O13         Ni21   1.917       .  S
O13          C23   1.282       .  A
O14         Ni21   1.916       .  S
O14          C24   1.281       .  A
O15         Ni21   1.916       .  S
O15          C25   1.282       .  A
O16         Ni21   1.912       .  S
O16          C26   1.281       .  A
O17         Ni22   1.924       .  S
O17          C26   1.283       .  A
O18         Ni22   1.922       .  S
O18          C25   1.283       .  A
O19         Ni22   1.925       .  S
O19          C24   1.283       .  A
O20         Ni22   1.924       .  S
O20          C23   1.283       .  A
Ni21        Ni22   2.385       .  S
C23        C1172   1.485       .  S
C24        C1268   1.483       .  S
C25        C1233   1.484       .  S
C26        C1196   1.483       .  S
C27          C28   1.539   1_554  S
C27          C33   1.525       .  S
C27          C31   1.536       .  S
C27        C1089   1.521       .  S
C28          H35   1.085       .  S
C28          C29   1.367       .  D
C29          C30   1.536   1_556  S
C29        C1148   1.478       .  S
C30          C34   1.544       .  S
C30          C32   1.540       .  S
C30          H36   1.106       .  S
C31          H37   1.086       .  S
C31          C32   1.366       .  D
C32        C1124   1.474       .  S
C33          H38   1.082       .  S
C33          C34   1.368       .  D
C34         C140   1.498   1_554  S
O39         Ni47   1.908       .  S
O39          C49   1.280       .  A
O40         Ni47   1.907       .  S
O40          C50   1.280       .  A
O41         Ni47   1.912       .  S
O41          C51   1.281       .  A
O42         Ni47   1.913       .  S
O42          C52   1.281       .  A
O43         Ni48   1.921       .  S
O43          C52   1.282       .  A
O44         Ni48   1.920       .  S
O44          C51   1.282       .  A
O45         Ni48   1.927       .  S
O45          C50   1.284       .  A
O46         Ni48   1.924       .  S
O46          C49   1.283       .  A
Ni47        Ni48   2.387       .  S
C49        C1137   1.480       .  S
C50        C1052   1.482       .  S
C51        C1076   1.480       .  S
C52        C1113   1.476       .  S
O53         Ni61   1.924   1_556  S
O53          C63   1.283       .  A
O54         Ni61   1.924       .  S
O54          C64   1.283       .  A
O55         Ni61   1.920       .  S
O55          C65   1.282       .  A
O56         Ni61   1.920   1_556  S
O56          C66   1.282       .  A
O57         Ni62   1.912   1_556  S
O57          C66   1.281       .  A
O58         Ni62   1.914       .  S
O58          C65   1.282       .  A
O59         Ni62   1.914       .  S
O59          C64   1.281       .  A
O60         Ni62   1.915   1_556  S
O60          C63   1.281       .  A
Ni61        Ni62   2.386       .  S
C63        C1161   1.483       .  S
C64        C1041   1.484       .  S
C65        C1185   1.482       .  S
C66        C1065   1.481       .  S
C67          C68   1.538       .  S
C67          C73   1.527   1_556  S
C67          C71   1.544       .  S
C67        C1028   1.521       .  S
C68          H75   1.086       .  S
C68          C69   1.365   1_556  D
C69          C70   1.539       .  S
C69         C969   1.486       .  S
C70          C74   1.541       .  S
C70          C72   1.540       .  S
C70          H76   1.111       .  S
C71          H77   1.080       .  S
C71          C72   1.367   1_556  D
C73          H78   1.087       .  S
C73          C74   1.361       .  D
C74         C993   1.479       .  S
O79         Ni87   1.915       .  S
O79          C89   1.282       .  A
O80         Ni87   1.917       .  S
O80          C90   1.282       .  A
O81         Ni87   1.920       .  S
O81          C91   1.282       .  A
O82         Ni87   1.917       .  S
O82          C92   1.282       .  A
O83         Ni88   1.922       .  S
O83          C92   1.283       .  A
O84         Ni88   1.921       .  S
O84          C91   1.283       .  A
O85         Ni88   1.914       .  S
O85          C90   1.281       .  A
O86         Ni88   1.912       .  S
O86          C89   1.280       .  A
Ni87        Ni88   2.386       .  S
C89        C1017   1.476       .  S
C90         C921   1.480       .  S
C91         C956   1.485       .  S
C92        C1004   1.484       .  S
C93          C94   1.536       .  S
C93          C99   1.534       .  S
C93          C97   1.545       .  S
C93         C897   1.523       .  S
C94         H101   1.086       .  S
C94          C95   1.364   1_554  D
C95          C96   1.534       .  S
C95         C849   1.474       .  S
C96         C100   1.536       .  S
C96          C98   1.541   1_556  S
C96         H102   1.111       .  S
C97         H103   1.083       .  S
C97          C98   1.367       .  D
C98         C204   1.479       .  S
C99         H104   1.087       .  S
C99         C100   1.363   1_554  D
C100        C884   1.481       .  S
O105       Ni113   1.921       .  S
O105        C115   1.282       .  A
O106       Ni113   1.916       .  S
O106        C116   1.282       .  A
O107       Ni113   1.928       .  S
O107        C117   1.284       .  A
O108       Ni113   1.927       .  S
O108        C118   1.283       .  A
O109       Ni114   1.910       .  S
O109        C118   1.281       .  A
O110       Ni114   1.908       .  S
O110        C117   1.280       .  A
O111       Ni114   1.914       .  S
O111        C116   1.281       .  A
O112       Ni114   1.914       .  S
O112        C115   1.282       .  A
Ni113      Ni114   2.386       .  S
C115        C812   1.481       .  S
C116        C908   1.479       .  S
C117        C873   1.483       .  S
C118        C836   1.482       .  S
O119       Ni127   1.903       .  S
O119        C129   1.279       .  A
O120       Ni127   1.905   1_556  S
O120        C130   1.280       .  A
O121       Ni127   1.914   1_556  S
O121        C131   1.281       .  A
O122       Ni127   1.912       .  S
O122        C132   1.281       .  A
O123       Ni128   1.925       .  S
O123        C132   1.282       .  A
O124       Ni128   1.926   1_556  S
O124        C131   1.283       .  A
O125       Ni128   1.928   1_556  S
O125        C130   1.284       .  A
O126       Ni128   1.929       .  S
O126        C129   1.284       .  A
Ni127      Ni128   2.386       .  S
C129        C932   1.481       .  S
C130        C801   1.481       .  S
C131        C945   1.485       .  S
C132        C825   1.483       .  S
C133        C134   1.539   1_556  S
C133        C139   1.525       .  S
C133        C137   1.536       .  S
C133        C740   1.527       .  S
C134        H141   1.084       .  S
C134        C135   1.370       .  D
C135        C136   1.541   1_554  S
C135        C788   1.486       .  S
C136        C140   1.544       .  S
C136        C138   1.544       .  S
C136        H142   1.105       .  S
C137        H143   1.085       .  S
C137        C138   1.368       .  D
C138        C764   1.488       .  S
C139        H144   1.082       .  S
C139        C140   1.369       .  D
O145       Ni153   1.904       .  S
O145        C155   1.279       .  A
O146       Ni153   1.905       .  S
O146        C156   1.280       .  A
O147       Ni153   1.916       .  S
O147        C157   1.282       .  A
O148       Ni153   1.914       .  S
O148        C158   1.281       .  A
O149       Ni154   1.928       .  S
O149        C158   1.283       .  A
O150       Ni154   1.926       .  S
O150        C157   1.283       .  A
O151       Ni154   1.928       .  S
O151        C156   1.283       .  A
O152       Ni154   1.931       .  S
O152        C155   1.284       .  A
Ni153      Ni154   2.386       .  S
C155        C777   1.482       .  S
C156        C692   1.481       .  S
C157        C716   1.486       .  S
C158        C753   1.485       .  S
C159        C160   1.548       .  S
C159        C165   1.531   1_556  S
C159        C163   1.539       .  S
C159        C668   1.529       .  S
C160        H167   1.081       .  S
C160        C161   1.367       .  D
C161        C162   1.537   1_556  S
C161        C609   1.485   1_556  S
C162        C166   1.540       .  S
C162        C164   1.539       .  S
C162        H168   1.111       .  S
C163        H169   1.085       .  S
C163        C164   1.365   1_556  D
C164        C232   1.476       .  S
C165        H170   1.086       .  S
C165        C166   1.364       .  D
C166        C633   1.484       .  S
O171       Ni179   1.913       .  S
O171        C181   1.281       .  A
O172       Ni179   1.913       .  S
O172        C182   1.281       .  A
O173       Ni179   1.916       .  S
O173        C183   1.282       .  A
O174       Ni179   1.917       .  S
O174        C184   1.282       .  A
O175       Ni180   1.921       .  S
O175        C184   1.282       .  A
O176       Ni180   1.920       .  S
O176        C183   1.282       .  A
O177       Ni180   1.922       .  S
O177        C182   1.283       .  A
O178       Ni180   1.923       .  S
O178        C181   1.282       .  A
Ni179      Ni180   2.386       .  S
C181        C657   1.483       .  S
C182        C561   1.482       .  S
C183        C585   1.483       .  S
C184        C644   1.484       .  S
O185       Ni193   1.916   1_554  S
O185        C195   1.281       .  A
O186       Ni193   1.916       .  S
O186        C196   1.281       .  A
O187       Ni193   1.931       .  S
O187        C197   1.284       .  A
O188       Ni193   1.933   1_554  S
O188        C198   1.285       .  A
O189       Ni194   1.907   1_554  S
O189        C198   1.280       .  A
O190       Ni194   1.906       .  S
O190        C197   1.280       .  A
O191       Ni194   1.918       .  S
O191        C196   1.283       .  A
O192       Ni194   1.918   1_554  S
O192        C195   1.282       .  A
Ni193      Ni194   2.386       .  S
C195        C572   1.482       .  S
C196        C681   1.482       .  S
C197        C596   1.484       .  S
C198        C705   1.485       .  S
C199        C200   1.542       .  S
C199        C205   1.535   1_556  S
C199        C203   1.534       .  S
C199        C548   1.528       .  S
C200        H207   1.080       .  S
C200        C201   1.363   1_556  D
C201        C202   1.536       .  S
C201        C500   1.476       .  S
C202        C206   1.544       .  S
C202        C204   1.542       .  S
C202        H208   1.111       .  S
C203        H209   1.086       .  S
C203        C204   1.365   1_556  D
C205        H210   1.086       .  S
C205        C206   1.367       .  D
C206        C513   1.488       .  S
O211       Ni219   1.925       .  S
O211        C221   1.283       .  A
O212       Ni219   1.922       .  S
O212        C222   1.283       .  A
O213       Ni219   1.920       .  S
O213        C223   1.282       .  A
O214       Ni219   1.918       .  S
O214        C224   1.282       .  A
O215       Ni220   1.919       .  S
O215        C224   1.282       .  A
O216       Ni220   1.921       .  S
O216        C223   1.283       .  A
O217       Ni220   1.909       .  S
O217        C222   1.280       .  A
O218       Ni220   1.910       .  S
O218        C221   1.280       .  A
Ni219      Ni220   2.386       .  S
C221        C452   1.482       .  S
C222        C537   1.480       .  S
C223        C524   1.486       .  S
C224        C476   1.483       .  S
C225        C226   1.540       .  S
C225        C231   1.528       .  S
C225        C229   1.539   1_554  S
C225        C380   1.525       .  S
C226        H233   1.082       .  S
C226        C227   1.366       .  D
C227        C228   1.539       .  S
C227        C428   1.477       .  S
C228        C232   1.539       .  S
C228        C230   1.541   1_554  S
C228        H234   1.109       .  S
C229        H235   1.085       .  S
C229        C230   1.370       .  D
C230        C404   1.491       .  S
C231        H236   1.086       .  S
C231        C232   1.361       .  D
O237       Ni245   1.922       .  S
O237        C247   1.283       .  A
O238       Ni245   1.926       .  S
O238        C248   1.283       .  A
O239       Ni245   1.913       .  S
O239        C249   1.280       .  A
O240       Ni245   1.916       .  S
O240        C250   1.282       .  A
O241       Ni246   1.920       .  S
O241        C250   1.282       .  A
O242       Ni246   1.920       .  S
O242        C249   1.283       .  A
O243       Ni246   1.911       .  S
O243        C248   1.281       .  A
O244       Ni246   1.913       .  S
O244        C247   1.280       .  A
Ni245      Ni246   2.387       .  S
C247        C417   1.478       .  S
C248        C321   1.484       .  S
C249        C356   1.480       .  S
C250        C393   1.481       .  S
O251       Ni259   1.915       .  S
O251        C261   1.281       .  A
O252       Ni259   1.916   1_556  S
O252        C262   1.282       .  A
O253       Ni259   1.912   1_556  S
O253        C263   1.281       .  A
O254       Ni259   1.910       .  S
O254        C264   1.281       .  A
O255       Ni260   1.923       .  S
O255        C264   1.283       .  A
O256       Ni260   1.924   1_556  S
O256        C263   1.283       .  A
O257       Ni260   1.923   1_556  S
O257        C262   1.283       .  A
O258       Ni260   1.921       .  S
O258        C261   1.282       .  A
Ni259      Ni260   2.386       .  S
C261        C441   1.482       .  S
C262        C332   1.484       .  S
C263        C465   1.483       .  S
C264        C345   1.481       .  S
O265       Ni273   1.914       .  S
O265        C275   1.279   1_554  A
O266       Ni273   1.922       .  S
O266        C276   1.282   1_554  A
O267       Ni273   1.921       .  S
O267        C277   1.283   1_554  A
O268       Ni273   1.922       .  S
O268        C278   1.283   1_554  A
O269       Ni274   1.905       .  S
O269        C278   1.279       .  A
O270       Ni274   1.908       .  S
O270        C277   1.278       .  A
O271       Ni274   1.923       .  S
O271        C276   1.283       .  A
O272       Ni274   1.921       .  S
O272        C275   1.283       .  A
Ni273      Ni274   2.389   1_554  S
C275        C305   1.467       .  S
C276        C620   1.488       .  S
C277        C289   1.464       .  S
C278        C860   1.472       .  S
O279       Ni287   1.910       .  S
O279        C289   1.278   1_554  A
O280       Ni287   1.907   1_545  S
O280        C290   1.280   1_554  A
O281       Ni287   1.922       .  S
O281        C291   1.283   1_554  A
O282       Ni287   1.917   1_545  S
O282        C292   1.282   1_554  A
O283       Ni288   1.912       .  S
O283        C292   1.281       .  A
O284       Ni288   1.918   1_565  S
O284        C291   1.280       .  A
O285       Ni288   1.920       .  S
O285        C290   1.283       .  A
O286       Ni288   1.920   1_565  S
O286        C289   1.283       .  A
Ni287      Ni288   2.389   1_564  S
C290       C1100   1.478   1_455  S
C291        C317   1.471   1_455  S
C292        C369   1.479       .  S
O293       Ni301   1.906       .  S
O293        C303   1.278   1_554  A
O294       Ni301   1.907       .  S
O294        C304   1.279   1_554  A
O295       Ni301   1.929       .  S
O295        C305   1.284   1_554  A
O296       Ni301   1.929       .  S
O296        C306   1.285   1_554  A
O297       Ni302   1.913       .  S
O297        C306   1.280       .  A
O298       Ni302   1.906       .  S
O298        C305   1.277       .  A
O299       Ni302   1.929       .  S
O299        C304   1.285       .  A
O300       Ni302   1.927       .  S
O300        C303   1.284       .  A
Ni301      Ni302   2.388   1_554  S
C303        C319   1.466       .  S
C304        C489   1.480       .  S
C306       C1209   1.486       .  S
O307       Ni315   1.912       .  S
O307        C317   1.279   1_554  A
O308       Ni315   1.908       .  S
O308        C318   1.279   1_554  A
O309       Ni315   1.918       .  S
O309        C319   1.283   1_654  A
O310       Ni315   1.923       .  S
O310        C320   1.283   1_554  A
O311       Ni316   1.917       .  S
O311        C320   1.281       .  A
O312       Ni316   1.915       .  S
O312        C319   1.279   1_655  A
O313       Ni316   1.929       .  S
O313        C318   1.285       .  A
O314       Ni316   1.929       .  S
O314        C317   1.284       .  A
Ni315      Ni316   2.388   1_554  S
C318        C980   1.483       .  S
C320        C729   1.483       .  S
C321        C322   1.406       .  A
C321        C326   1.405       .  A
C322        C323   1.402       .  A
C322        H335   1.083       .  S
C323        C324   1.406       .  A
C323        H336   1.083       .  S
C324        C327   1.492       .  S
C324        C325   1.408       .  A
C325        C326   1.396       .  A
C325        H337   1.080       .  S
C326        H338   1.083       .  S
C327        H339   1.083       .  S
C327        C328   1.350       .  D
C328        H340   1.084       .  S
C328        C329   1.490       .  S
C329        C330   1.404       .  A
C329        C334   1.409       .  A
C330        C331   1.396       .  A
C330        H341   1.083       .  S
C331        C332   1.405       .  A
C331        H342   1.083       .  S
C332        C333   1.407       .  A
C333        C334   1.402       .  A
C333        H343   1.083       .  S
C334        H344   1.080       .  S
C345        C346   1.406       .  A
C345        C350   1.405       .  A
C346        C347   1.401       .  A
C346        H359   1.083       .  S
C347        C348   1.405       .  A
C347        H360   1.083       .  S
C348        C351   1.488       .  S
C348        C349   1.407       .  A
C349        C350   1.394       .  A
C349        H361   1.081       .  S
C350        H362   1.083       .  S
C351        H363   1.083       .  S
C351        C352   1.349       .  D
C352        H364   1.085       .  S
C352        C353   1.488       .  S
C353        C354   1.404       .  A
C353        C358   1.409       .  A
C354        C355   1.396       .  A
C354        H365   1.083       .  S
C355        C356   1.403       .  A
C355        H366   1.083       .  S
C356        C357   1.406       .  A
C357        C358   1.400       .  A
C357        H367   1.083       .  S
C358        H368   1.080       .  S
C369        C370   1.405       .  A
C369        C374   1.404   1_556  A
C370        C371   1.396       .  A
C370        H383   1.083       .  S
C371        C372   1.404       .  A
C371        H384   1.083       .  S
C372        C375   1.488       .  S
C372        C373   1.410   1_556  A
C373        C374   1.397       .  A
C373        H385   1.079       .  S
C374        H386   1.083       .  S
C375        H387   1.086       .  S
C375        C376   1.347   1_556  D
C376        H388   1.082       .  S
C376        C377   1.481       .  S
C377        C378   1.400       .  A
C377        C382   1.404   1_554  A
C378        C379   1.397       .  A
C378        H389   1.083       .  S
C379        C380   1.410       .  A
C379        H390   1.077       .  S
C380        C381   1.409   1_554  A
C381        C382   1.395       .  A
C381        H391   1.083       .  S
C382        H392   1.082       .  S
C393        C394   1.403       .  A
C393        C398   1.405       .  A
C394        C395   1.396       .  A
C394        H407   1.083       .  S
C395        C396   1.405       .  A
C395        H408   1.083       .  S
C396        C399   1.491       .  S
C396        C397   1.410       .  A
C397        C398   1.401       .  A
C397        H409   1.079       .  S
C398        H410   1.083       .  S
C399        H411   1.085       .  S
C399        C400   1.349       .  D
C400        H412   1.083       .  S
C400        C401   1.488       .  S
C401        C402   1.403       .  A
C401        C406   1.407       .  A
C402        C403   1.400       .  A
C402        H413   1.083       .  S
C403        C404   1.406       .  A
C403        H414   1.080       .  S
C404        C405   1.407       .  A
C405        C406   1.396       .  A
C405        H415   1.082       .  S
C406        H416   1.082       .  S
C417        C418   1.406       .  A
C417        C422   1.404       .  A
C418        C419   1.398       .  A
C418        H431   1.083       .  S
C419        C420   1.401       .  A
C419        H432   1.083       .  S
C420        C423   1.480       .  S
C420        C421   1.406       .  A
C421        C422   1.399       .  A
C421        H433   1.083       .  S
C422        H434   1.083       .  S
C423        H435   1.086       .  S
C423        C424   1.344       .  D
C424        H436   1.087       .  S
C424        C425   1.482       .  S
C425        C426   1.404       .  A
C425        C430   1.407       .  A
C426        C427   1.399       .  A
C426        H437   1.083       .  S
C427        C428   1.402       .  A
C427        H438   1.083       .  S
C428        C429   1.403       .  A
C429        C430   1.396       .  A
C429        H439   1.083       .  S
C430        H440   1.082       .  S
C441        C442   1.406       .  A
C441        C446   1.405       .  A
C442        C443   1.400       .  A
C442        H455   1.083       .  S
C443        C444   1.404       .  A
C443        H456   1.083       .  S
C444        C447   1.488       .  S
C444        C445   1.408       .  A
C445        C446   1.397       .  A
C445        H457   1.081       .  S
C446        H458   1.083       .  S
C447        H459   1.084       .  S
C447        C448   1.348       .  D
C448        H460   1.085       .  S
C448        C449   1.487       .  S
C449        C450   1.409       .  A
C449        C454   1.402       .  A
C450        C451   1.402       .  A
C450        H461   1.081       .  S
C451        C452   1.406       .  A
C451        H462   1.083       .  S
C452        C453   1.405       .  A
C453        C454   1.395       .  A
C453        H463   1.083       .  S
C454        H464   1.084       .  S
C465        C466   1.405       .  A
C465        C470   1.405       .  A
C466        C467   1.396       .  A
C466        H479   1.083       .  S
C467        C468   1.404       .  A
C467        H480   1.084       .  S
C468        C471   1.493       .  S
C468        C469   1.411       .  A
C469        C470   1.401       .  A
C469        H481   1.079       .  S
C470        H482   1.083       .  S
C471        H483   1.081       .  S
C471        C472   1.350       .  D
C472        H484   1.083       .  S
C472        C473   1.495       .  S
C473        C474   1.406       .  A
C473        C478   1.411       .  A
C474        C475   1.399       .  A
C474        H485   1.083       .  S
C475        C476   1.405       .  A
C475        H486   1.083       .  S
C476        C477   1.404       .  A
C477        C478   1.398       .  A
C477        H487   1.083       .  S
C478        H488   1.078       .  S
C489        C490   1.404       .  A
C489        C494   1.406   1_556  A
C490        C491   1.400       .  A
C490        H503   1.083       .  S
C491        C492   1.404   1_556  A
C491        H504   1.083       .  S
C492        C495   1.485       .  S
C492        C493   1.406       .  A
C493        C494   1.398       .  A
C493        H505   1.082       .  S
C494        H506   1.083       .  S
C495        H507   1.087   1_554  S
C495        C496   1.346       .  D
C496        H508   1.086       .  S
C496        C497   1.480       .  S
C497        C498   1.401       .  A
C497        C502   1.408       .  A
C498        C499   1.395       .  A
C498        H509   1.083       .  S
C499        C500   1.403       .  A
C499        H510   1.083       .  S
C500        C501   1.402       .  A
C501        C502   1.401       .  A
C501        H511   1.082       .  S
C502        H512   1.083       .  S
C513        C514   1.404       .  A
C513        C518   1.405       .  A
C514        C515   1.402       .  A
C514        H527   1.083       .  S
C515        C516   1.406       .  A
C515        H528   1.083       .  S
C516        C519   1.492       .  S
C516        C517   1.408       .  A
C517        C518   1.398       .  A
C517        H529   1.081       .  S
C518        H530   1.083       .  S
C519        H531   1.085       .  S
C519        C520   1.349       .  D
C520        H532   1.085       .  S
C520        C521   1.491       .  S
C521        C522   1.404       .  A
C521        C526   1.409       .  A
C522        C523   1.399       .  A
C522        H533   1.083       .  S
C523        C524   1.405       .  A
C523        H534   1.083       .  S
C524        C525   1.407       .  A
C525        C526   1.401       .  A
C525        H535   1.083       .  S
C526        H536   1.081       .  S
C537        C538   1.406       .  A
C537        C542   1.405       .  A
C538        C539   1.396       .  A
C538        H551   1.083       .  S
C539        C540   1.401       .  A
C539        H552   1.083       .  S
C540        C543   1.483       .  S
C540        C541   1.408       .  A
C541        C542   1.398       .  A
C541        H553   1.082       .  S
C542        H554   1.083       .  S
C543        H555   1.085       .  S
C543        C544   1.346       .  D
C544        H556   1.086       .  S
C544        C545   1.484       .  S
C545        C546   1.400       .  A
C545        C550   1.406       .  A
C546        C547   1.395       .  A
C546        H557   1.084       .  S
C547        C548   1.411       .  A
C547        H558   1.075       .  S
C548        C549   1.409       .  A
C549        C550   1.398       .  A
C549        H559   1.083       .  S
C550        H560   1.081       .  S
C561        C562   1.405       .  A
C561        C566   1.405       .  A
C562        C563   1.397       .  A
C562        H575   1.083       .  S
C563        C564   1.404       .  A
C563        H576   1.084       .  S
C564        C567   1.492       .  S
C564        C565   1.411       .  A
C565        C566   1.399       .  A
C565        H577   1.079       .  S
C566        H578   1.083       .  S
C567        H579   1.083       .  S
C567        C568   1.349       .  D
C568        H580   1.083       .  S
C568        C569   1.491       .  S
C569        C570   1.404       .  A
C569        C574   1.410       .  A
C570        C571   1.397       .  A
C570        H581   1.084       .  S
C571        C572   1.405       .  A
C571        H582   1.083       .  S
C572        C573   1.405       .  A
C573        C574   1.399       .  A
C573        H583   1.083       .  S
C574        H584   1.079       .  S
C585        C586   1.406       .  A
C585        C590   1.405       .  A
C586        C587   1.400       .  A
C586        H599   1.083       .  S
C587        C588   1.404       .  A
C587        H600   1.083       .  S
C588        C591   1.491       .  S
C588        C589   1.409       .  A
C589        C590   1.397       .  A
C589        H601   1.080       .  S
C590        H602   1.083       .  S
C591        H603   1.085       .  S
C591        C592   1.348       .  D
C592        H604   1.084       .  S
C592        C593   1.487       .  S
C593        C594   1.402       .  A
C593        C598   1.410       .  A
C594        C595   1.394       .  A
C594        H605   1.084       .  S
C595        C596   1.406       .  A
C595        H606   1.083       .  S
C596        C597   1.406       .  A
C597        C598   1.403       .  A
C597        H607   1.083       .  S
C598        H608   1.081       .  S
C609        C610   1.402       .  A
C609        C614   1.404   1_554  A
C610        C611   1.403       .  A
C610        H623   1.083       .  S
C611        C612   1.407       .  A
C611        H624   1.083       .  S
C612        C615   1.494       .  S
C612        C613   1.409   1_554  A
C613        C614   1.397       .  A
C613        H625   1.081       .  S
C614        H626   1.083       .  S
C615        H627   1.083       .  S
C615        C616   1.352   1_554  D
C616        H628   1.084       .  S
C616        C617   1.496       .  S
C617        C618   1.406       .  A
C617        C622   1.410   1_556  A
C618        C619   1.399   1_545  A
C618        H629   1.083       .  S
C619        C620   1.404       .  A
C619        H630   1.083       .  S
C620        C621   1.407   1_556  A
C621        C622   1.402   1_565  A
C621        H631   1.083       .  S
C622        H632   1.079       .  S
C633        C634   1.404       .  A
C633        C638   1.404       .  A
C634        C635   1.403       .  A
C634        H647   1.083       .  S
C635        C636   1.406       .  A
C635        H648   1.083       .  S
C636        C639   1.489       .  S
C636        C637   1.407       .  A
C637        C638   1.395       .  A
C637        H649   1.081       .  S
C638        H650   1.083       .  S
C639        H651   1.085       .  S
C639        C640   1.348       .  D
C640        H652   1.085       .  S
C640        C641   1.487       .  S
C641        C642   1.403       .  A
C641        C646   1.408       .  A
C642        C643   1.397       .  A
C642        H653   1.083       .  S
C643        C644   1.405       .  A
C643        H654   1.083       .  S
C644        C645   1.407       .  A
C645        C646   1.401       .  A
C645        H655   1.083       .  S
C646        H656   1.081       .  S
C657        C658   1.405       .  A
C657        C662   1.407       .  A
C658        C659   1.395       .  A
C658        H671   1.083       .  S
C659        C660   1.403       .  A
C659        H672   1.084       .  S
C660        C663   1.487       .  S
C660        C661   1.409       .  A
C661        C662   1.402       .  A
C661        H673   1.081       .  S
C662        H674   1.083       .  S
C663        H675   1.086       .  S
C663        C664   1.348       .  D
C664        H676   1.085       .  S
C664        C665   1.488       .  S
C665        C666   1.401       .  A
C665        C670   1.406       .  A
C666        C667   1.399       .  A
C666        H677   1.083       .  S
C667        C668   1.410       .  A
C667        H678   1.083       .  S
C668        C669   1.410       .  A
C669        C670   1.397       .  A
C669        H679   1.076       .  S
C670        H680   1.082       .  S
C681        C682   1.407       .  A
C681        C686   1.404       .  A
C682        C683   1.400       .  A
C682        H695   1.083       .  S
C683        C684   1.403       .  A
C683        H696   1.083       .  S
C684        C687   1.488       .  S
C684        C685   1.409       .  A
C685        C686   1.395       .  A
C685        H697   1.081       .  S
C686        H698   1.083       .  S
C687        H699   1.085       .  S
C687        C688   1.346       .  D
C688        H700   1.085       .  S
C688        C689   1.483       .  S
C689        C690   1.400       .  A
C689        C694   1.409       .  A
C690        C691   1.392       .  A
C690        H701   1.084       .  S
C691        C692   1.405       .  A
C691        H702   1.083       .  S
C692        C693   1.407       .  A
C693        C694   1.404       .  A
C693        H703   1.083       .  S
C694        H704   1.082       .  S
C705        C706   1.406       .  A
C705        C710   1.406       .  A
C706        C707   1.404       .  A
C706        H719   1.083       .  S
C707        C708   1.407       .  A
C707        H720   1.083       .  S
C708        C711   1.494       .  S
C708        C709   1.408       .  A
C709        C710   1.395       .  A
C709        H721   1.081       .  S
C710        H722   1.083       .  S
C711        H723   1.084       .  S
C711        C712   1.351       .  D
C712        H724   1.084       .  S
C712        C713   1.491       .  S
C713        C714   1.404       .  A
C713        C718   1.409       .  A
C714        C715   1.396       .  A
C714        H725   1.084       .  S
C715        C716   1.405       .  A
C715        H726   1.083       .  S
C716        C717   1.407       .  A
C717        C718   1.404       .  A
C717        H727   1.083       .  S
C718        H728   1.081       .  S
C729        C730   1.405       .  A
C729        C734   1.405   1_556  A
C730        C731   1.398       .  A
C730        H743   1.083       .  S
C731        C732   1.404       .  A
C731        H744   1.083       .  S
C732        C735   1.491   1_565  S
C732        C733   1.409       .  A
C733        C734   1.400   1_556  A
C733        H745   1.080   1_556  S
C734        H746   1.083       .  S
C735        H747   1.085       .  S
C735        C736   1.349       .  D
C736        H748   1.084   1_546  S
C736        C737   1.489       .  S
C737        C738   1.402   1_556  A
C737        C742   1.406       .  A
C738        C739   1.398       .  A
C738        H749   1.083       .  S
C739        C740   1.410   1_554  A
C739        H750   1.081       .  S
C740        C741   1.411       .  A
C741        C742   1.399       .  A
C741        H751   1.082       .  S
C742        H752   1.082       .  S
C753        C754   1.405       .  A
C753        C758   1.408       .  A
C754        C755   1.395       .  A
C754        H767   1.083       .  S
C755        C756   1.402       .  A
C755        H768   1.084       .  S
C756        C759   1.487       .  S
C756        C757   1.408       .  A
C757        C758   1.404       .  A
C757        H769   1.082       .  S
C758        H770   1.083       .  S
C759        H771   1.086       .  S
C759        C760   1.348       .  D
C760        H772   1.086       .  S
C760        C761   1.490       .  S
C761        C762   1.405       .  A
C761        C766   1.407       .  A
C762        C763   1.402       .  A
C762        H773   1.083       .  S
C763        C764   1.405       .  A
C763        H774   1.083       .  S
C764        C765   1.405       .  A
C765        C766   1.397       .  A
C765        H775   1.083       .  S
C766        H776   1.082       .  S
C777        C778   1.405       .  A
C777        C782   1.405       .  A
C778        C779   1.393       .  A
C778        H791   1.083       .  S
C779        C780   1.403       .  A
C779        H792   1.084       .  S
C780        C783   1.490       .  S
C780        C781   1.411       .  A
C781        C782   1.403       .  A
C781        H793   1.080       .  S
C782        H794   1.083       .  S
C783        H795   1.086       .  S
C783        C784   1.348       .  D
C784        H796   1.083       .  S
C784        C785   1.488       .  S
C785        C786   1.404       .  A
C785        C790   1.408       .  A
C786        C787   1.400       .  A
C786        H797   1.083       .  S
C787        C788   1.406       .  A
C787        H798   1.083       .  S
C788        C789   1.404       .  A
C789        C790   1.396       .  A
C789        H799   1.083       .  S
C790        H800   1.082       .  S
C801        C802   1.404       .  A
C801        C806   1.406       .  A
C802        C803   1.392       .  A
C802        H815   1.083       .  S
C803        C804   1.402       .  A
C803        H816   1.084       .  S
C804        C807   1.487       .  S
C804        C805   1.410       .  A
C805        C806   1.404       .  A
C805        H817   1.081       .  S
C806        H818   1.083       .  S
C807        H819   1.085       .  S
C807        C808   1.348       .  D
C808        H820   1.084       .  S
C808        C809   1.489       .  S
C809        C810   1.404       .  A
C809        C814   1.408       .  A
C810        C811   1.401       .  A
C810        H821   1.083       .  S
C811        C812   1.406       .  A
C811        H822   1.083       .  S
C812        C813   1.404       .  A
C813        C814   1.395       .  A
C813        H823   1.083       .  S
C814        H824   1.081       .  S
C825        C826   1.404       .  A
C825        C830   1.407       .  A
C826        C827   1.394       .  A
C826        H839   1.083       .  S
C827        C828   1.403       .  A
C827        H840   1.084       .  S
C828        C831   1.490       .  S
C828        C829   1.410       .  A
C829        C830   1.404       .  A
C829        H841   1.080       .  S
C830        H842   1.083       .  S
C831        H843   1.084       .  S
C831        C832   1.349       .  D
C832        H844   1.083       .  S
C832        C833   1.492       .  S
C833        C834   1.406       .  A
C833        C838   1.408       .  A
C834        C835   1.403       .  A
C834        H845   1.083       .  S
C835        C836   1.406       .  A
C835        H846   1.083       .  S
C836        C837   1.404       .  A
C837        C838   1.395       .  A
C837        H847   1.083       .  S
C838        H848   1.081       .  S
C849        C850   1.403       .  A
C849        C854   1.402       .  A
C850        C851   1.394       .  A
C850        H863   1.083       .  S
C851        C852   1.400       .  A
C851        H864   1.084       .  S
C852        C855   1.475       .  S
C852        C853   1.406       .  A
C853        C854   1.398       .  A
C853        H865   1.083       .  S
C854        H866   1.083       .  S
C855        H867   1.086       .  S
C855        C856   1.343       .  D
C856        H868   1.087       .  S
C856        C857   1.479       .  S
C857        C858   1.403   1_556  A
C857        C862   1.406       .  A
C858        C859   1.397       .  A
C858        H869   1.083       .  S
C859        C860   1.403   1_554  A
C859        H870   1.083       .  S
C860        C861   1.404       .  A
C861        C862   1.396       .  A
C861        H871   1.083       .  S
C862        H872   1.082       .  S
C873        C874   1.405       .  A
C873        C878   1.406       .  A
C874        C875   1.394       .  A
C874        H887   1.083       .  S
C875        C876   1.402       .  A
C875        H888   1.084       .  S
C876        C879   1.487       .  S
C876        C877   1.410       .  A
C877        C878   1.403       .  A
C877        H889   1.081       .  S
C878        H890   1.083       .  S
C879        H891   1.085       .  S
C879        C880   1.347       .  D
C880        H892   1.084       .  S
C880        C881   1.489       .  S
C881        C882   1.405       .  A
C881        C886   1.409       .  A
C882        C883   1.401       .  A
C882        H893   1.083       .  S
C883        C884   1.404       .  A
C883        H894   1.083       .  S
C884        C885   1.402       .  A
C885        C886   1.394       .  A
C885        H895   1.083       .  S
C886        H896   1.081       .  S
C897        C898   1.409       .  A
C897        C902   1.408       .  A
C898        C899   1.393       .  A
C898        H911   1.083       .  S
C899        C900   1.399       .  A
C899        H912   1.084       .  S
C900        C903   1.484       .  S
C900        C901   1.408       .  A
C901        C902   1.400       .  A
C901        H913   1.082       .  S
C902        H914   1.078       .  S
C903        H915   1.083       .  S
C903        C904   1.346       .  D
C904        H916   1.085       .  S
C904        C905   1.488       .  S
C905        C906   1.404       .  A
C905        C910   1.409       .  A
C906        C907   1.396       .  A
C906        H917   1.083       .  S
C907        C908   1.405       .  A
C907        H918   1.083       .  S
C908        C909   1.405       .  A
C909        C910   1.397       .  A
C909        H919   1.083       .  S
C910        H920   1.080       .  S
C921        C922   1.405       .  A
C921        C926   1.406       .  A
C922        C923   1.396       .  A
C922        H935   1.083       .  S
C923        C924   1.403       .  A
C923        H936   1.084       .  S
C924        C927   1.484       .  S
C924        C925   1.407       .  A
C925        C926   1.399       .  A
C925        H937   1.081       .  S
C926        H938   1.083       .  S
C927        H939   1.084       .  S
C927        C928   1.349       .  D
C928        H940   1.085       .  S
C928        C929   1.488       .  S
C929        C930   1.406       .  A
C929        C934   1.407       .  A
C930        C931   1.401       .  A
C930        H941   1.083       .  S
C931        C932   1.405       .  A
C931        H942   1.083       .  S
C932        C933   1.405       .  A
C933        C934   1.393       .  A
C933        H943   1.083       .  S
C934        H944   1.080       .  S
C945        C946   1.406       .  A
C945        C950   1.406       .  A
C946        C947   1.402       .  A
C946        H959   1.083       .  S
C947        C948   1.405       .  A
C947        H960   1.083       .  S
C948        C951   1.492       .  S
C948        C949   1.408       .  A
C949        C950   1.397       .  A
C949        H961   1.081       .  S
C950        H962   1.083       .  S
C951        H963   1.084       .  S
C951        C952   1.350       .  D
C952        H964   1.084       .  S
C952        C953   1.491       .  S
C953        C954   1.404       .  A
C953        C958   1.409       .  A
C954        C955   1.397       .  A
C954        H965   1.083       .  S
C955        C956   1.405       .  A
C955        H966   1.083       .  S
C956        C957   1.407       .  A
C957        C958   1.402       .  A
C957        H967   1.083       .  S
C958        H968   1.080       .  S
C969        C970   1.402       .  A
C969        C974   1.405   1_554  A
C970        C971   1.402       .  A
C970        H983   1.083       .  S
C971        C972   1.407       .  A
C971        H984   1.083       .  S
C972        C975   1.492       .  S
C972        C973   1.408   1_554  A
C973        C974   1.396       .  A
C973        H985   1.080       .  S
C974        H986   1.083       .  S
C975        H987   1.083       .  S
C975        C976   1.352   1_554  D
C976        H988   1.083       .  S
C976        C977   1.492       .  S
C977        C978   1.407       .  A
C977        C982   1.408   1_556  A
C978        C979   1.400       .  A
C978        H989   1.083       .  S
C979        C980   1.404       .  A
C979        H990   1.083       .  S
C980        C981   1.407   1_556  A
C981        C982   1.397       .  A
C981        H991   1.083       .  S
C982        H992   1.080       .  S
C993        C994   1.400       .  A
C993        C998   1.402       .  A
C994        C995   1.403       .  A
C994       H1007   1.083       .  S
C995        C996   1.409       .  A
C995       H1008   1.083       .  S
C996        C999   1.494       .  S
C996        C997   1.409       .  A
C997        C998   1.395       .  A
C997       H1009   1.079       .  S
C998       H1010   1.084       .  S
C999       H1011   1.084       .  S
C999       C1000   1.351       .  D
C1000      H1012   1.083       .  S
C1000      C1001   1.491       .  S
C1001      C1002   1.406       .  A
C1001      C1006   1.409       .  A
C1002      C1003   1.399       .  A
C1002      H1013   1.083       .  S
C1003      C1004   1.405       .  A
C1003      H1014   1.083       .  S
C1004      C1005   1.406       .  A
C1005      C1006   1.399       .  A
C1005      H1015   1.083       .  S
C1006      H1016   1.080       .  S
C1017      C1018   1.406       .  A
C1017      C1022   1.403       .  A
C1018      C1019   1.398       .  A
C1018      H1031   1.083       .  S
C1019      C1020   1.402       .  A
C1019      H1032   1.083       .  S
C1020      C1023   1.482       .  S
C1020      C1021   1.407       .  A
C1021      C1022   1.394       .  A
C1021      H1033   1.082       .  S
C1022      H1034   1.083       .  S
C1023      H1035   1.085       .  S
C1023      C1024   1.344       .  D
C1024      H1036   1.086       .  S
C1024      C1025   1.480       .  S
C1025      C1026   1.399       .  A
C1025      C1030   1.407       .  A
C1026      C1027   1.391       .  A
C1026      H1037   1.084       .  S
C1027      C1028   1.407       .  A
C1027      H1038   1.083       .  S
C1028      C1029   1.409       .  A
C1029      C1030   1.400       .  A
C1029      H1039   1.078       .  S
C1030      H1040   1.081       .  S
C1041      C1042   1.405       .  A
C1041      C1046   1.406       .  A
C1042      C1043   1.395       .  A
C1042      H1055   1.083       .  S
C1043      C1044   1.403       .  A
C1043      H1056   1.084       .  S
C1044      C1047   1.488       .  S
C1044      C1045   1.409       .  A
C1045      C1046   1.402       .  A
C1045      H1057   1.080       .  S
C1046      H1058   1.083       .  S
C1047      H1059   1.085       .  S
C1047      C1048   1.349       .  D
C1048      H1060   1.084       .  S
C1048      C1049   1.489       .  S
C1049      C1050   1.405       .  A
C1049      C1054   1.407       .  A
C1050      C1051   1.402       .  A
C1050      H1061   1.083       .  S
C1051      C1052   1.406       .  A
C1051      H1062   1.083       .  S
C1052      C1053   1.406       .  A
C1053      C1054   1.395       .  A
C1053      H1063   1.083       .  S
C1054      H1064   1.081       .  S
C1065      C1066   1.405       .  A
C1065      C1070   1.405       .  A
C1066      C1067   1.399       .  A
C1066      H1079   1.083       .  S
C1067      C1068   1.404       .  A
C1067      H1080   1.083       .  S
C1068      C1071   1.488       .  S
C1068      C1069   1.408       .  A
C1069      C1070   1.396       .  A
C1069      H1081   1.080       .  S
C1070      H1082   1.083       .  S
C1071      H1083   1.085       .  S
C1071      C1072   1.347       .  D
C1072      H1084   1.084       .  S
C1072      C1073   1.483       .  S
C1073      C1074   1.402       .  A
C1073      C1078   1.408       .  A
C1074      C1075   1.395       .  A
C1074      H1085   1.084       .  S
C1075      C1076   1.405       .  A
C1075      H1086   1.083       .  S
C1076      C1077   1.406       .  A
C1077      C1078   1.400       .  A
C1077      H1087   1.083       .  S
C1078      H1088   1.082       .  S
C1089      C1090   1.410       .  A
C1089      C1094   1.410   1_554  A
C1090      C1091   1.398       .  A
C1090      H1103   1.081       .  S
C1091      C1092   1.401       .  A
C1091      H1104   1.083       .  S
C1092      C1095   1.481       .  S
C1092      C1093   1.403   1_554  A
C1093      C1094   1.393       .  A
C1093      H1105   1.082       .  S
C1094      H1106   1.081       .  S
C1095      H1107   1.085       .  S
C1095      C1096   1.348   1_554  D
C1096      H1108   1.086       .  S
C1096      C1097   1.482       .  S
C1097      C1098   1.404       .  A
C1097      C1102   1.406   1_556  A
C1098      C1099   1.397       .  A
C1098      H1109   1.083       .  S
C1099      C1100   1.404       .  A
C1099      H1110   1.083       .  S
C1100      C1101   1.406   1_556  A
C1101      C1102   1.395       .  A
C1101      H1111   1.083       .  S
C1102      H1112   1.081       .  S
C1113      C1114   1.405       .  A
C1113      C1118   1.403       .  A
C1114      C1115   1.400       .  A
C1114      H1127   1.083       .  S
C1115      C1116   1.403       .  A
C1115      H1128   1.083       .  S
C1116      C1119   1.483       .  S
C1116      C1117   1.406       .  A
C1117      C1118   1.396       .  A
C1117      H1129   1.083       .  S
C1118      H1130   1.083       .  S
C1119      H1131   1.086       .  S
C1119      C1120   1.345       .  D
C1120      H1132   1.087       .  S
C1120      C1121   1.483       .  S
C1121      C1122   1.403       .  A
C1121      C1126   1.408       .  A
C1122      C1123   1.396       .  A
C1122      H1133   1.083       .  S
C1123      C1124   1.401       .  A
C1123      H1134   1.083       .  S
C1124      C1125   1.402       .  A
C1125      C1126   1.399       .  A
C1125      H1135   1.083       .  S
C1126      H1136   1.082       .  S
C1137      C1138   1.404       .  A
C1137      C1142   1.406       .  A
C1138      C1139   1.392       .  A
C1138      H1151   1.083       .  S
C1139      C1140   1.403       .  A
C1139      H1152   1.084       .  S
C1140      C1143   1.486       .  S
C1140      C1141   1.410       .  A
C1141      C1142   1.402       .  A
C1141      H1153   1.080       .  S
C1142      H1154   1.083       .  S
C1143      H1155   1.086       .  S
C1143      C1144   1.347       .  D
C1144      H1156   1.083       .  S
C1144      C1145   1.484       .  S
C1145      C1146   1.404       .  A
C1145      C1150   1.407       .  A
C1146      C1147   1.400       .  A
C1146      H1157   1.083       .  S
C1147      C1148   1.405       .  A
C1147      H1158   1.083       .  S
C1148      C1149   1.402       .  A
C1149      C1150   1.393       .  A
C1149      H1159   1.083       .  S
C1150      H1160   1.082       .  S
C1161      C1162   1.405       .  A
C1161      C1166   1.406       .  A
C1162      C1163   1.400       .  A
C1162      H1175   1.083       .  S
C1163      C1164   1.405       .  A
C1163      H1176   1.083       .  S
C1164      C1167   1.492       .  S
C1164      C1165   1.409       .  A
C1165      C1166   1.399       .  A
C1165      H1177   1.081       .  S
C1166      H1178   1.083       .  S
C1167      H1179   1.084       .  S
C1167      C1168   1.350       .  D
C1168      H1180   1.084       .  S
C1168      C1169   1.492       .  S
C1169      C1170   1.404       .  A
C1169      C1174   1.409       .  A
C1170      C1171   1.398       .  A
C1170      H1181   1.084       .  S
C1171      C1172   1.406       .  A
C1171      H1182   1.083       .  S
C1172      C1173   1.406       .  A
C1173      C1174   1.401       .  A
C1173      H1183   1.083       .  S
C1174      H1184   1.080       .  S
C1185      C1186   1.404       .  A
C1185      C1190   1.407       .  A
C1186      C1187   1.394       .  A
C1186      H1199   1.083       .  S
C1187      C1188   1.403       .  A
C1187      H1200   1.084       .  S
C1188      C1191   1.487       .  S
C1188      C1189   1.409       .  A
C1189      C1190   1.402       .  A
C1189      H1201   1.081       .  S
C1190      H1202   1.083       .  S
C1191      H1203   1.084       .  S
C1191      C1192   1.348       .  D
C1192      H1204   1.084       .  S
C1192      C1193   1.490       .  S
C1193      C1194   1.405       .  A
C1193      C1198   1.408       .  A
C1194      C1195   1.402       .  A
C1194      H1205   1.083       .  S
C1195      C1196   1.406       .  A
C1195      H1206   1.083       .  S
C1196      C1197   1.405       .  A
C1197      C1198   1.395       .  A
C1197      H1207   1.083       .  S
C1198      H1208   1.081       .  S
C1209      C1210   1.408       .  A
C1209      C1214   1.406   1_456  A
C1210      C1211   1.398   1_455  A
C1210      H1223   1.083       .  S
C1211      C1212   1.403       .  A
C1211      H1224   1.083       .  S
C1212      C1215   1.490       .  S
C1212      C1213   1.409   1_556  A
C1213      C1214   1.401       .  A
C1213      H1225   1.081       .  S
C1214      H1226   1.083   1_655  S
C1215      H1227   1.084       .  S
C1215      C1216   1.349   1_556  D
C1216      H1228   1.085       .  S
C1216      C1217   1.492       .  S
C1217      C1218   1.404       .  A
C1217      C1222   1.407   1_554  A
C1218      C1219   1.400       .  A
C1218      H1229   1.083       .  S
C1219      C1220   1.408       .  A
C1219      H1230   1.077       .  S
C1220      C1221   1.410   1_554  A
C1221      C1222   1.398       .  A
C1221      H1231   1.084       .  S
C1222      H1232   1.081       .  S
C1233      C1234   1.405       .  A
C1233      C1238   1.406       .  A
C1234      C1235   1.398       .  A
C1234      H1247   1.083       .  S
C1235      C1236   1.405       .  A
C1235      H1248   1.083       .  S
C1236      C1239   1.493       .  S
C1236      C1237   1.410       .  A
C1237      C1238   1.401       .  A
C1237      H1249   1.080       .  S
C1238      H1250   1.083       .  S
C1239      H1251   1.084       .  S
C1239      C1240   1.350       .  D
C1240      H1252   1.083       .  S
C1240      C1241   1.492       .  S
C1241      C1242   1.404       .  A
C1241      C1246   1.409       .  A
C1242      C1243   1.399       .  A
C1242      H1253   1.083       .  S
C1243      C1244   1.405       .  A
C1243      H1254   1.080       .  S
C1244      C1245   1.407       .  A
C1245      C1246   1.400       .  A
C1245      H1255   1.082       .  S
C1246      H1256   1.081       .  S
C1257      C1258   1.403       .  A
C1257      C1262   1.404       .  A
C1258      C1259   1.399       .  A
C1258      H1271   1.083       .  S
C1259      C1260   1.403       .  A
C1259      H1272   1.083       .  S
C1260      C1263   1.484       .  S
C1260      C1261   1.407       .  A
C1261      C1262   1.400       .  A
C1261      H1273   1.083       .  S
C1262      H1274   1.083       .  S
C1263      H1275   1.087       .  S
C1263      C1264   1.346       .  D
C1264      H1276   1.087       .  S
C1264      C1265   1.485       .  S
C1265      C1266   1.404       .  A
C1265      C1270   1.405       .  A
C1266      C1267   1.402       .  A
C1266      H1277   1.083       .  S
C1267      C1268   1.406       .  A
C1267      H1278   1.083       .  S
C1268      C1269   1.406       .  A
C1269      C1270   1.398       .  A
C1269      H1279   1.083       .  S
C1270      H1280   1.083       .  S
