geometry optimzed in LAMMPS
_audit_creation_date              2020-11-30 
_audit_creation_method            'lammps2cif' 
_symmetry_space_group_name_H-M    'P1' 
_symmetry_Int_Tables_number       1 
_symmetry_cell_setting            triclinic 
loop_ 
_symmetry_equiv_pos_as_xyz 
  x,y,z 
_cell_length_a                    46.80706222 
_cell_length_b                    46.80453088001517 
_cell_length_c                    44.58840567589962 
_cell_angle_alpha                 90.36586807125462 
_cell_angle_beta                  89.67979414258046 
_cell_angle_gamma                 121.05223295273113 
loop_ 
_atom_site_label 
_atom_site_type_symbol 
_atom_site_fract_x 
_atom_site_fract_y 
_atom_site_fract_z 
_atom_site_charge 
O1          O  0.27269830  0.97799828  0.12182869    -0.85200
O2          O  0.30656260  0.94612202  0.11296254    -0.82300
C3          C  0.31308792  0.92421050  0.10547862     0.98200
O4          O  0.29637135  0.90340904  0.08493471    -0.82300
O5          O  0.23396248  0.86559650  0.11033620    -0.85000
C6          C  0.20516926  0.85642562  0.11987408     1.02800
O7          O  0.19057916  0.87148482  0.11122257    -0.77700
O8          O  0.22803023  0.93253376  0.13672172    -0.77900
C9          C  0.25418869  0.95953203  0.14281884     1.02700
O10         O  0.26735542  0.98103636  0.05744754    -0.85200
O11         O  0.30610778  0.95419115  0.04904555    -0.82300
C12         C  0.29154970  0.93419114  0.02750521     0.98200
O13         O  0.26435154  0.90734222  0.03143159    -0.82300
O14         O  0.20255884  0.86430211  0.05437601    -0.84900
C15         C  0.18499699  0.87617264  0.04571155     1.02700
O16         O  0.19055918  0.90364097  0.05622140    -0.77700
O17         O  0.22219771  0.96529434  0.08403107    -0.77900
C18         C  0.24270537  0.98372173  0.06397511     1.02700
Cr19       Cr  0.28551764  0.96209415  0.08523002     1.93700
Cr20       Cr  0.24926690  0.88760704  0.07120921     1.93200
Cr21       Cr  0.21050807  0.91871266  0.09616491     1.39100
O22         O  0.24844103  0.92283476  0.08406919    -1.23000
O23         O  0.36254719  0.99855889  0.79726562    -0.85200
O24         O  0.38466860  0.04470896  0.75171770    -0.82300
C25         C  0.41103465  0.06533290  0.76512088     0.98200
O26         O  0.43481719  0.06006802  0.76664645    -0.82300
O27         O  0.46836356  0.02612506  0.76809300    -0.85000
C28         C  0.46355510  0.01183979  0.79319251     1.02800
O29         O  0.43519365  0.98758174  0.80006208    -0.77700
O30         O  0.36733278  0.95438500  0.80325317    -0.77900
C31         C  0.36089587  0.97582173  0.81352482     1.02700
O32         O  0.33116846  0.94616872  0.75518536    -0.85200
O33         O  0.36180582  0.99169955  0.70943463    -0.82300
C34         C  0.38478297  0.01448048  0.69393213     0.98200
O35         O  0.41269491  0.03529753  0.70551925    -0.82300
O36         O  0.44197986  0.99780880  0.71003239    -0.84900
C37         C  0.44386081  0.97284841  0.71744281     1.02700
O38         O  0.43250008  0.95879838  0.74248090    -0.77700
O39         O  0.36375539  0.92751019  0.74306389    -0.77900
C40         C  0.33507073  0.92373922  0.74385235     1.02700
Cr41       Cr  0.36285187  0.99519644  0.75342087     1.93700
Cr42       Cr  0.43680962  0.02749380  0.73877454     1.93200
Cr43       Cr  0.39958539  0.95950212  0.77089080     1.39100
O44         O  0.40007513  0.99403067  0.75446285    -1.23000
O45         O  0.03126857  0.33132705  0.12621737    -0.85200
O46         O  0.05434590  0.37784943  0.08098014    -0.82300
C47         C  0.07957578  0.39852839  0.09565420     0.98200
O48         O  0.10381769  0.39403093  0.09813684    -0.82300
O49         O  0.13878816  0.36122465  0.10135737    -0.85000
C50         C  0.13332595  0.34586672  0.12591342     1.02800
O51         O  0.10461625  0.32192178  0.13237219    -0.77700
O52         O  0.03647451  0.28772887  0.13311894    -0.77900
C53         C  0.02968649  0.30906708  0.14313637     1.02700
O54         O  0.00252091  0.27912036  0.08309042    -0.85200
O55         O  0.03452208  0.32604064  0.03809011    -0.82300
C56         C  0.05792878  0.34960157  0.02346867     0.98200
O57         O  0.08549362  0.36984553  0.03602847    -0.82300
O58         O  0.11622429  0.33389878  0.04280908    -0.84900
C59         C  0.11769479  0.30880461  0.05068920     1.02700
O60         O  0.10523606  0.29421686  0.07527876    -0.77700
O61         O  0.03663295  0.26187614  0.07284982    -0.77900
C62         C  0.00779493  0.25762153  0.07161153     1.02700
Cr63       Cr  0.03346984  0.32846122  0.08227425     1.93700
Cr64       Cr  0.10830372  0.36241242  0.07071870     1.93200
Cr65       Cr  0.07054866  0.29385225  0.10204106     1.39100
O66         O  0.07111466  0.32816836  0.08497862    -1.23000
O67         O  0.38669418  0.32226681  0.91313315    -0.85200
O68         O  0.33794328  0.29466192  0.86919524    -0.82300
C69         C  0.31292173  0.27255422  0.85498649     0.98200
O70         O  0.29114149  0.24574362  0.86754561    -0.82300
O71         O  0.32106048  0.20877128  0.87384115    -0.85000
C72         C  0.34475557  0.20473426  0.88132118     1.02800
O73         O  0.35956778  0.21561628  0.90605094    -0.77700
O74         O  0.39782007  0.28359763  0.90219883    -0.77900
C75         C  0.40527544  0.31354705  0.90087069     1.02700
O76         O  0.33600238  0.29901225  0.95743291    -0.85200
O77         O  0.28873527  0.28016478  0.91304224    -0.82300
C78         C  0.26640162  0.25636886  0.92791101     0.98200
O79         O  0.26712930  0.22982792  0.92953636    -0.82300
O80         O  0.29355368  0.18914042  0.93285497    -0.84900
C81         C  0.30770197  0.19378138  0.95798841     1.02700
O82         O  0.33472521  0.22062226  0.96352139    -0.77700
O83         O  0.37643918  0.28870604  0.96269566    -0.77900
C84         C  0.35796344  0.29873686  0.97346379     1.02700
Cr85       Cr  0.33707171  0.29604009  0.91341792     1.93700
Cr86       Cr  0.29581598  0.22097116  0.90199314     1.93200
Cr87       Cr  0.36481882  0.25250564  0.93237701     1.39100
O88         O  0.33255783  0.25614248  0.91584924    -1.23000
O89         O  0.95538583  0.28824296  0.46303704    -0.85200
O90         O  0.98355701  0.26924831  0.41825308    -0.82300
C91         C  0.97784118  0.24219343  0.42951651     0.98200
O92         O  0.94847445  0.21749207  0.43001208    -0.82300
O93         O  0.87996665  0.18167796  0.43054025    -0.85000
C94         C  0.87011240  0.18548685  0.45590408     1.02800
O95         O  0.87281661  0.21292656  0.46300248    -0.77700
O96         O  0.90518221  0.28099102  0.46683484    -0.77900
C97         C  0.93310533  0.28918573  0.47837346     1.02700
O98         O  0.93477410  0.31752169  0.41960750    -0.85200
O99         O  0.95460956  0.29070217  0.37464126    -0.82300
C100        C  0.95524046  0.26876269  0.35850763     0.98200
O101        O  0.94744577  0.24075511  0.36964495    -0.82300
O102        O  0.87940332  0.20823548  0.37282376    -0.84900
C103        C  0.85184693  0.20525298  0.37973374     1.02700
O104        O  0.84745276  0.21447329  0.40513763    -0.77700
O105        O  0.88360052  0.28274841  0.40594525    -0.77900
C106        C  0.90853422  0.31195962  0.40673185     1.02700
Cr107      Cr  0.95419075  0.28846883  0.41883882     1.93700
Cr108      Cr  0.91400710  0.21464988  0.40203282     1.93200
Cr109      Cr  0.87995932  0.24800884  0.43403650     1.39100
O110        O  0.91578828  0.25003804  0.41838976    -1.23000
O111        O  0.33639442  0.37542826  0.24926750    -0.85200
O112        O  0.36685463  0.35737804  0.20644966    -0.82300
C113        C  0.39008056  0.35784166  0.19159908     0.98200
O114        O  0.41775312  0.36624827  0.20364881    -0.82300
O115        O  0.44563272  0.43432434  0.20472656    -0.85000
C116        C  0.44747987  0.46152395  0.21147784     1.02800
O117        O  0.43921087  0.46568045  0.23745304    -0.77700
O118        O  0.37011488  0.42734867  0.23663146    -0.77900
C119        C  0.34118255  0.40179766  0.23706107     1.02700
O120        O  0.36678445  0.35755341  0.29488969    -0.85200
O121        O  0.38936139  0.33109947  0.25220246    -0.82300
C122        C  0.41615777  0.33915759  0.26556154     0.98200
O123        O  0.44021200  0.36887358  0.26476881    -0.82300
O124        O  0.47287578  0.43715162  0.26319651    -0.84900
C125        C  0.46755395  0.44469926  0.28902727     1.02700
O126        O  0.43932834  0.44025862  0.29582491    -0.77700
O127        O  0.37103725  0.40628033  0.29740268    -0.77900
C128        C  0.36471489  0.37940254  0.30987193     1.02700
Cr129      Cr  0.36751433  0.35815426  0.25064098     1.93700
Cr130      Cr  0.44153514  0.40132426  0.23516582     1.93200
Cr131      Cr  0.40488744  0.43242116  0.26565191     1.39100
O132        O  0.40482503  0.39750848  0.25046317    -1.23000
O133        O  0.97995646  0.35606805  0.71159290    -0.85200
O134        O  0.04579596  0.39421577  0.72342320    -0.82300
C135        C  0.07331341  0.41829069  0.73181399     0.98200
O136        O  0.07475864  0.43797890  0.75225572    -0.82300
O137        O  0.04530575  0.47125586  0.72859782    -0.85000
C138        C  0.02325923  0.47677948  0.71912640     1.02800
O139        O  0.99308928  0.45728389  0.72640966    -0.77700
O140        O  0.97686808  0.39908191  0.69749248    -0.77900
C141        C  0.97717474  0.37301561  0.69101059     1.02700
O142        O  0.96754439  0.34889719  0.77572588    -0.85200
O143        O  0.03433161  0.38218766  0.78675752    -0.82300
C144        C  0.03762155  0.40070947  0.80890831     0.98200
O145        O  0.03441674  0.42557149  0.80554360    -0.82300
O146        O  0.00986933  0.46307557  0.78401740    -0.84900
C147        C  0.97928741  0.44698930  0.79139064     1.02700
O148        O  0.95964034  0.41947081  0.77890800    -0.77700
O149        O  0.93656241  0.36057136  0.74787279    -0.77900
C150        C  0.93929507  0.34285902  0.76766716     1.02700
Cr151      Cr  0.00673572  0.37299190  0.74955817     1.93700
Cr152      Cr  0.03873541  0.44677649  0.76646728     1.93200
Cr153      Cr  0.96911837  0.40907044  0.73858719     1.39100
O154        O  0.00498762  0.40967352  0.75154830    -1.23000
O155        O  0.32572870  0.02680824  0.37486341    -0.85200
O156        O  0.37148455  0.04356323  0.42007333    -0.82300
C157        C  0.39299175  0.06830398  0.40538346     0.98200
O158        O  0.39241454  0.09498794  0.40657186    -0.82300
O159        O  0.36512577  0.13531211  0.40968226    -0.85000
C160        C  0.35311154  0.13390456  0.38412947     1.02800
O161        O  0.32797679  0.10700361  0.37521008    -0.77700
O162        O  0.28665791  0.03904756  0.36963481    -0.77900
C163        C  0.30492232  0.02889108  0.35860915     1.02700
O164        O  0.27336780  0.99958635  0.41749297    -0.85200
O165        O  0.32022330  0.02442740  0.46338858    -0.82300
C166        C  0.34497349  0.04503240  0.47887515     0.98200
O167        O  0.36746644  0.07215522  0.46733194    -0.82300
O168        O  0.33542206  0.10761703  0.46596440    -0.84900
C169        C  0.31182201  0.11198972  0.45878597     1.02700
O170        O  0.29934446  0.10487621  0.43279732    -0.77700
O171        O  0.26063369  0.03692615  0.42940329    -0.77900
C172        C  0.25324005  0.00697551  0.42859819     1.02700
Cr173      Cr  0.32293426  0.02646595  0.41903387     1.93700
Cr174      Cr  0.36272826  0.10005325  0.43613189     1.93200
Cr175      Cr  0.29588745  0.07149714  0.40294078     1.39100
O176        O  0.32700825  0.06620549  0.41943255    -1.23000
O177        O  0.30635534  0.35952068  0.60885967    -0.85200
O178        O  0.27469082  0.29343589  0.62175379    -0.82300
C179        C  0.25498067  0.29033448  0.64270805     0.98200
O180        O  0.22921687  0.29145473  0.63742917    -0.82300
O181        O  0.19185419  0.31407915  0.61175686    -0.85000
C182        C  0.20681463  0.34501158  0.61806113     1.02800
O183        O  0.23460244  0.36477641  0.60602599    -0.77700
O184        O  0.29530971  0.38818309  0.57743389    -0.77900
C185        C  0.31260767  0.38709150  0.59865481     1.02700
O186        O  0.30284183  0.34486480  0.54524456    -0.85200
O187        O  0.26620522  0.27953011  0.55858061    -0.82300
C188        C  0.24219811  0.25188980  0.56674733     0.98200
O189        O  0.22099552  0.25017451  0.58567505    -0.82300
O190        O  0.18712203  0.27685051  0.55790522    -0.84900
C191        C  0.18095047  0.29788319  0.54703781     1.02700
O192        O  0.19953302  0.32846813  0.55351786    -0.77700
O193        O  0.25915798  0.34462402  0.52776881    -0.77900
C194        C  0.28579432  0.34482142  0.52325407     1.02700
Cr195      Cr  0.28479648  0.31937459  0.58362502     1.93700
Cr196      Cr  0.20996731  0.28548936  0.59709403     1.93200
Cr197      Cr  0.24725144  0.35411532  0.56728704     1.39100
O198        O  0.24725093  0.31952478  0.58279108    -1.23000
O199        O  0.99890443  0.71475517  0.58474295    -0.85200
O200        O  0.02862822  0.69996021  0.53827943    -0.82300
C201        C  0.05125757  0.70105011  0.52192049     0.98200
O202        O  0.07939522  0.70900785  0.53317900    -0.82300
O203        O  0.11137458  0.77664006  0.53878727    -0.85000
C204        C  0.11225131  0.80322447  0.54581482     1.02800
O205        O  0.09971202  0.80587468  0.57007104    -0.77700
O206        O  0.03155607  0.76629436  0.57116799    -0.77900
C207        C  0.00284899  0.74073819  0.57267009     1.02700
O208        O  0.03163186  0.69583414  0.62621082    -0.85200
O209        O  0.05162885  0.67070394  0.57970766    -0.82300
C210        C  0.07728884  0.67684326  0.59397237     0.98200
O211        O  0.10157591  0.70635349  0.59466570    -0.82300
O212        O  0.13598463  0.77427676  0.59686101    -0.84900
C213        C  0.13133321  0.78505428  0.62135638     1.02700
O214        O  0.10353964  0.78184684  0.62771288    -0.77700
O215        O  0.03569020  0.74442514  0.63176297    -0.77900
C216        C  0.03033574  0.71706802  0.64281049     1.02700
Cr217      Cr  0.03047949  0.69823621  0.58225363     1.93700
Cr218      Cr  0.10435063  0.74111515  0.56702874     1.93200
Cr219      Cr  0.06749723  0.77201667  0.59888508     1.39100
O220        O  0.06789455  0.73764794  0.58268863    -1.23000
O221        O  0.68495208  0.96900196  0.55532245    -0.85200
O222        O  0.61830504  0.93737796  0.54521610    -0.82300
C223        C  0.61672455  0.91984538  0.52279477     0.98200
O224        O  0.61664939  0.89322357  0.52663829    -0.82300
O225        O  0.63731395  0.85238646  0.54845503    -0.85000
C226        C  0.66783223  0.86624258  0.54101079     1.02800
O227        O  0.68870280  0.89426598  0.55199276    -0.77700
O228        O  0.71567910  0.95518224  0.58107135    -0.77900
C229        C  0.71315448  0.97436431  0.56270727     1.02700
O230        O  0.67440382  0.96333008  0.61941529    -0.85200
O231        O  0.60820265  0.92665556  0.60940218    -0.82300
C232        C  0.57998416  0.90299551  0.60200198     0.98200
O233        O  0.57703891  0.88383488  0.58039313    -0.82300
O234        O  0.60395695  0.84826748  0.60409044    -0.84900
C235        C  0.62509484  0.84146366  0.61360014     1.02700
O236        O  0.65548076  0.85961611  0.60608597    -0.77700
O237        O  0.67682481  0.91984185  0.63332842    -0.77900
C238        C  0.67831343  0.94679434  0.63967680     1.02700
Cr239      Cr  0.64639265  0.94625296  0.58213968     1.93700
Cr240      Cr  0.61114871  0.87212605  0.56589980     1.93200
Cr241      Cr  0.68164718  0.90740867  0.59220332     1.39100
O242        O  0.64641512  0.90858080  0.58010733    -1.23000
O243        O  0.02220489  0.63587248  0.22005712    -0.85200
O244        O  0.95451369  0.60247301  0.21421394    -0.82300
C245        C  0.95130885  0.58323068  0.19279144     0.98200
O246        O  0.95471587  0.55869463  0.19768779    -0.82300
O247        O  0.97895461  0.52173801  0.22230951    -0.85000
C248        C  0.00944457  0.53530959  0.21477072     1.02800
O249        O  0.03035366  0.56385993  0.22484153    -0.77700
O250        O  0.05549323  0.62748494  0.24803628    -0.77900
C251        C  0.05119957  0.64362927  0.22748986     1.02700
O252        O  0.01658506  0.63836091  0.28407827    -0.85200
O253        O  0.94978690  0.59859022  0.27843052    -0.82300
C254        C  0.92162447  0.57338086  0.27349996     0.98200
O255        O  0.91788414  0.55285211  0.25285126    -0.82300
O256        O  0.94700510  0.52120331  0.27795025    -0.84900
C257        C  0.96871506  0.51653213  0.28934829     1.02700
O258        O  0.99899237  0.53433377  0.28120738    -0.77700
O259        O  0.01870724  0.59674228  0.30297397    -0.77900
C260        C  0.01996134  0.62408351  0.30656320     1.02700
Cr261      Cr  0.98585861  0.61612689  0.24916503     1.93700
Cr262      Cr  0.95212938  0.54134076  0.23840476     1.93200
Cr263      Cr  0.02340028  0.58061533  0.26331085     1.39100
O264        O  0.98718816  0.57923110  0.25016103    -1.23000
O265        O  0.69530879  0.66813103  0.45567440    -0.85200
O266        O  0.72117322  0.71469921  0.41060022    -0.82300
C267        C  0.74621345  0.73544912  0.42543573     0.98200
O268        O  0.76998651  0.73046899  0.42931110    -0.82300
O269        O  0.80328375  0.69638092  0.43550915    -0.85000
C270        C  0.79605344  0.68261096  0.46094868     1.02800
O271        O  0.76722929  0.65826000  0.46637103    -0.77700
O272        O  0.69891282  0.62372002  0.46391570    -0.77900
C273        C  0.69195633  0.64525783  0.47279873     1.02700
O274        O  0.66836712  0.61617675  0.41207155    -0.85200
O275        O  0.70314100  0.66317732  0.36793005    -0.82300
C276        C  0.72744408  0.68657162  0.35391041     0.98200
O277        O  0.75406976  0.70638435  0.36776743    -0.82300
O278        O  0.78240326  0.66842741  0.37655360    -0.84900
C279        C  0.78282973  0.64291927  0.38496930     1.02700
O280        O  0.77049566  0.62984675  0.41014139    -0.77700
O281        O  0.70243852  0.59797879  0.40511404    -0.77900
C282        C  0.67394702  0.59422109  0.40236081     1.02700
Cr283      Cr  0.69970423  0.66536418  0.41193237     1.93700
Cr284      Cr  0.77471676  0.69804840  0.40333203     1.93200
Cr285      Cr  0.73482585  0.62997021  0.43497822     1.39100
O286        O  0.73668527  0.66440082  0.41678447    -1.23000
O287        O  0.61584693  0.62002166  0.79397397    -0.85200
O288        O  0.65191967  0.60909838  0.75156172    -0.82300
C289        C  0.64730531  0.58175161  0.76121999     0.98200
O290        O  0.61964752  0.55529365  0.75721946    -0.82300
O291        O  0.55188613  0.51493917  0.75259199    -0.85000
C292        C  0.54064694  0.51574122  0.77826905     1.02800
O293        O  0.54041519  0.54130799  0.78710798    -0.77700
O294        O  0.56413249  0.60817732  0.79434006    -0.77900
C295        C  0.59124734  0.61765892  0.80799264     1.02700
O296        O  0.59469185  0.64866065  0.74942949    -0.85200
O297        O  0.62428580  0.63045344  0.70618806    -0.82300
C298        C  0.62917098  0.61154446  0.68947243     0.98200
O299        O  0.62190975  0.58288493  0.69839545    -0.82300
O300        O  0.55360746  0.54589233  0.69627996    -0.84900
C301        C  0.52405599  0.53774385  0.70259814     1.02700
O302        O  0.51657672  0.54263896  0.72861134    -0.77700
O303        O  0.54582726  0.61066107  0.73266246    -0.77900
C304        C  0.56853349  0.64087402  0.73504513     1.02700
Cr305      Cr  0.61905190  0.62407857  0.74996622     1.93700
Cr306      Cr  0.58658261  0.55209821  0.72743380     1.93200
Cr307      Cr  0.54456741  0.57632601  0.75964411     1.39100
O308        O  0.58329304  0.58395285  0.74563541    -1.23000
O309        O  0.67844851  0.05014390  0.88838970    -0.85200
O310        O  0.70667953  0.01395129  0.87393987    -0.82300
C311        C  0.72589645  0.03106980  0.85268576     0.98200
O312        O  0.75284371  0.05762878  0.85837609    -0.82300
O313        O  0.79529375  0.11711076  0.88559201    -0.85000
C314        C  0.78372356  0.13569289  0.87999520     1.02800
O315        O  0.75599474  0.12897017  0.89093833    -0.77700
O316        O  0.69355572  0.09267020  0.91857917    -0.77900
C317        C  0.67472200  0.07323664  0.89806621     1.02700
O318        O  0.68172328  0.03878485  0.95168581    -0.85200
O319        O  0.71531441  0.00764265  0.93716457    -0.82300
C320        C  0.73815233  0.00319767  0.92809910     0.98200
O321        O  0.75858040  0.02179269  0.90820751    -0.82300
O322        O  0.79602254  0.08202978  0.93778886    -0.84900
C323        C  0.80410684  0.10956064  0.94997362     1.02700
O324        O  0.78793222  0.12378538  0.94387037    -0.77700
O325        O  0.72684359  0.08285280  0.96869351    -0.77900
C326        C  0.69954592  0.05638179  0.97341071     1.02700
Cr327      Cr  0.69840115  0.03041659  0.91284815     1.93700
Cr328      Cr  0.77300825  0.06942125  0.89856935     1.93200
Cr329      Cr  0.74062644  0.10441040  0.92932464     1.39100
O330        O  0.73734258  0.06810950  0.91352088    -1.23000
O331        O  0.65398905  0.04688172  0.25188636    -0.85200
O332        O  0.62156821  0.99713654  0.29425976    -0.82300
C333        C  0.59765890  0.97279679  0.30779761     0.98200
O334        O  0.57191274  0.95236111  0.29321104    -0.82300
O335        O  0.54095676  0.98823014  0.28778797    -0.85000
C336        C  0.53761621  0.01220407  0.27995075     1.02800
O337        O  0.54927771  0.02675759  0.25519114    -0.77700
O338        O  0.61781840  0.06226494  0.26023218    -0.77900
C339        C  0.64696635  0.06750125  0.26253996     1.02700
O340        O  0.62994347  0.99793347  0.20569351    -0.85200
O341        O  0.60557510  0.94820033  0.24817724    -0.82300
C342        C  0.58028792  0.92737226  0.23350812     0.98200
O343        O  0.55578223  0.93138668  0.23100406    -0.82300
O344        O  0.51989181  0.96294286  0.22853201    -0.84900
C345        C  0.52604618  0.97740244  0.20346607     1.02700
O346        O  0.55453283  0.00224041  0.19784520    -0.77700
O347        O  0.62286125  0.04047126  0.20047695    -0.77900
C348        C  0.63172779  0.02107506  0.18980246     1.02700
Cr349      Cr  0.62499567  0.99749650  0.24979244     1.93700
Cr350      Cr  0.54985687  0.96120275  0.25913145     1.93200
Cr351      Cr  0.58628837  0.03046583  0.22972733     1.39100
O352        O  0.58684759  0.99645567  0.24616657    -1.23000
O353        O  0.97152376  0.69344319  0.94485196    -0.85200
O354        O  0.94014305  0.62683463  0.95621966    -0.82300
C355        C  0.91976688  0.62378085  0.97654622     0.98200
O356        O  0.89480421  0.62576793  0.96975794    -0.82300
O357        O  0.85672457  0.64586325  0.94151288    -0.85000
C358        C  0.87011706  0.67656055  0.94805433     1.02800
O359        O  0.89828311  0.69733216  0.93732366    -0.77700
O360        O  0.96118751  0.72276181  0.91338185    -0.77900
C361        C  0.97706271  0.72115318  0.93563624     1.02700
O362        O  0.97332730  0.68172085  0.88139745    -0.85200
O363        O  0.93595892  0.61548974  0.89232873    -0.82300
C364        C  0.91144945  0.58753833  0.89918920     0.98200
O365        O  0.89036929  0.58503719  0.91860485    -0.82300
O366        O  0.85660005  0.60993783  0.88868078    -0.84900
C367        C  0.85098323  0.63051949  0.87601698     1.02700
O368        O  0.86807422  0.66125837  0.88277773    -0.77700
O369        O  0.93032775  0.68078487  0.86135282    -0.77900
C370        C  0.95808364  0.68285817  0.85849950     1.02700
Cr371      Cr  0.95253932  0.65435360  0.91855565     1.93700
Cr372      Cr  0.87734638  0.61909468  0.92871756     1.93200
Cr373      Cr  0.91457237  0.68817343  0.89980456     1.39100
O374        O  0.91473529  0.65384020  0.91570053    -1.23000
O375        O  0.63207075  0.67979681  0.04452044    -0.85200
O376        O  0.69934676  0.71747695  0.05322746    -0.82300
C377        C  0.72758756  0.74061451  0.06145976     0.98200
O378        O  0.73023613  0.76050672  0.08223998    -0.82300
O379        O  0.70416030  0.79533741  0.05694069    -0.85000
C380        C  0.68338564  0.80170743  0.04601324     1.02800
O381        O  0.65279068  0.78431954  0.05335503    -0.77700
O382        O  0.63098376  0.72305310  0.02829959    -0.77900
C383        C  0.62874843  0.69550619  0.02319308     1.02700
O384        O  0.62338714  0.67739558  0.10839208    -0.85200
O385        O  0.69026939  0.70896311  0.11713167    -0.82300
C386        C  0.69306534  0.72726376  0.13925888     0.98200
O387        O  0.69065919  0.75253679  0.13524458    -0.82300
O388        O  0.67042332  0.79327289  0.11167227    -0.84900
C389        C  0.63985153  0.77976201  0.11887546     1.02700
O390        O  0.61901051  0.75172090  0.10808986    -0.77700
O391        O  0.59206702  0.68969774  0.08157894    -0.77900
C392        C  0.59509686  0.67228628  0.10165832     1.02700
Cr393      Cr  0.66127022  0.69862445  0.08083244     1.93700
Cr394      Cr  0.69637412  0.77276223  0.09559868     1.93200
Cr395      Cr  0.62615257  0.73705405  0.06874275     1.39100
O396        O  0.66122803  0.73619975  0.08170815    -1.23000
C397        C  0.80231809  0.68330518  0.99003937    -0.22300
C398        C  0.82036351  0.71637167  0.00015660     0.09600
C399        C  0.85487868  0.73573884  0.99465175     0.10000
C400        C  0.87048037  0.72173597  0.97834188    -0.17300
C401        C  0.85231335  0.68877375  0.96717484    -0.27700
C402        C  0.81758928  0.66922784  0.97343760     0.18400
C403        C  0.80178344  0.72990880  0.01569645     0.12300
C404        C  0.87500933  0.77133384  0.00537342    -0.12000
H405        H  0.89701308  0.73690056  0.97397812     0.12600
C406        C  0.79589292  0.63394318  0.96215039    -0.22900
H407        H  0.77578397  0.66865094  0.99465407     0.08200
C408        C  0.78007558  0.73674253  0.99970755     0.04600
C409        C  0.75796240  0.74304839  0.01557484    -0.20100
C410        C  0.75704256  0.74271036  0.04705037    -0.12400
C411        C  0.78041693  0.73809152  0.06308852     0.13300
C412        C  0.80264219  0.73189389  0.04709179    -0.22800
C413        C  0.77958775  0.73643488  0.96590560    -0.05900
H414        H  0.74007894  0.74658969  0.00335707     0.14800
C415        C  0.78130229  0.73707476  0.09684430    -0.16100
H416        H  0.81935817  0.72661401  0.05922125     0.09100
H417        H  0.76934962  0.62320617  0.96864702     0.07000
H418        H  0.80428243  0.61772191  0.97186571     0.08200
H419        H  0.79692670  0.63341501  0.93727316     0.07200
H420        H  0.87374503  0.77220608  0.03020171     0.02100
H421        H  0.86491364  0.78606345  0.99554342     0.02600
H422        H  0.90164854  0.78318213  0.99876457     0.06100
H423        H  0.76161242  0.74302489  0.95700797     0.05100
H424        H  0.77222335  0.71126313  0.95729763    -0.00700
H425        H  0.80477342  0.75484267  0.95723356     0.00800
H426        H  0.77687674  0.71243689  0.10402987     0.04500
H427        H  0.76243251  0.74096806  0.10800674     0.06400
H428        H  0.80625155  0.75678954  0.10488974     0.07300
C429        C  0.58591093  0.80278307  0.16636469    -0.22300
C430        C  0.60771142  0.83709874  0.17003322     0.09600
C431        C  0.64051333  0.85209447  0.15877549     0.10000
C432        C  0.65040128  0.83259022  0.14291558    -0.17300
C433        C  0.62834595  0.79819728  0.13813643    -0.27700
C434        C  0.59568521  0.78301299  0.15069020     0.18400
C435        C  0.59606228  0.85688356  0.18643856     0.12300
C436        C  0.66513160  0.88871519  0.16362288    -0.12000
H437        H  0.67541919  0.84454700  0.13377723     0.12600
C438        C  0.57086964  0.74608437  0.14818878    -0.22900
H439        H  0.56098667  0.79149205  0.17568392     0.08200
C440        C  0.58329613  0.87431267  0.17126088     0.04600
C441        C  0.57569670  0.89532981  0.18763909    -0.20100
C442        C  0.58072248  0.89928465  0.21876154    -0.12400
C443        C  0.59137736  0.88002644  0.23411892     0.13300
C444        C  0.59909421  0.85921569  0.21770157    -0.22800
C445        C  0.57845542  0.87129156  0.13777137    -0.05900
H446        H  0.56758266  0.91013258  0.17589149     0.14800
C447        C  0.59476405  0.88072517  0.26776811    -0.16100
H448        H  0.60821735  0.84519896  0.22932302     0.09100
H449        H  0.54769626  0.73865748  0.16106736     0.07000
H450        H  0.58185601  0.73182536  0.15726618     0.08200
H451        H  0.56350827  0.73904677  0.12444013     0.07200
H452        H  0.66869969  0.89421498  0.18803315     0.02100
H453        H  0.65576159  0.90382585  0.15329137     0.02600
H454        H  0.68982306  0.89646563  0.15353647     0.06100
H455        H  0.56835845  0.88666078  0.12946412     0.05100
H456        H  0.56065583  0.84487868  0.13165590    -0.00700
H457        H  0.60260039  0.87971970  0.12629517     0.00800
H458        H  0.57936028  0.85499099  0.27662128     0.04500
H459        H  0.58617841  0.89612751  0.27908362     0.06400
H460        H  0.62123032  0.89057135  0.27379890     0.07300
C461        C  0.71452793  0.91499145  0.94409716    -0.22300
C462        C  0.72743626  0.91881269  0.97307036     0.09600
C463        C  0.74829103  0.95100318  0.98507607     0.10000
C464        C  0.75401630  0.97880712  0.96846160    -0.17300
C465        C  0.73935918  0.97488168  0.94024983    -0.27700
C466        C  0.72021460  0.94273114  0.92746892     0.18400
C467        C  0.71607244  0.88874163  0.99145166     0.12300
C468        C  0.76319472  0.95588458  0.01588474    -0.12000
H469        H  0.76830334  0.00342875  0.97818478     0.12600
C470        C  0.70418077  0.93671425  0.89704768    -0.22900
H471        H  0.69867916  0.89015998  0.93499289     0.08200
C472        C  0.68613995  0.87502248  0.00798622     0.04600
C473        C  0.67590615  0.84628569  0.02502433    -0.20100
C474        C  0.69512462  0.83111168  0.02624238    -0.12400
C475        C  0.72533443  0.84511684  0.00950132     0.13300
C476        C  0.73523211  0.87370514  0.99218109    -0.22800
C477        C  0.66518084  0.89095600  0.00788182    -0.05900
H478        H  0.65307766  0.83606357  0.03795277     0.14800
C479        C  0.74714591  0.83009240  0.00919251    -0.16100
H480        H  0.75813726  0.88458048  0.97925887     0.09100
H481        H  0.67664126  0.92151263  0.89947572     0.07000
H482        H  0.71257408  0.92296130  0.88266890     0.08200
H483        H  0.71070740  0.96010719  0.88532921     0.07200
H484        H  0.77923205  0.94484203  0.01666714     0.02100
H485        H  0.74304749  0.94353947  0.03287272     0.02600
H486        H  0.77872591  0.98272590  0.02188666     0.06100
H487        H  0.64266957  0.87718836  0.02225717     0.05100
H488        H  0.65684594  0.89128834  0.98469724    -0.00700
H489        H  0.68002388  0.91693643  0.01645120     0.00800
H490        H  0.76837472  0.84318737  0.99330994     0.04500
H491        H  0.73235333  0.80353051  0.00215734     0.06400
H492        H  0.75789546  0.83209499  0.03177155     0.07300
C493        C  0.69985311  0.03932131  0.05628392    -0.22300
C494        C  0.66791763  0.03180902  0.06471456     0.09600
C495        C  0.64542579  0.03011685  0.04282922     0.10000
C496        C  0.65587818  0.03709592  0.01281229    -0.17300
C497        C  0.68850161  0.04636277  0.00458399    -0.27700
C498        C  0.71048323  0.04660920  0.02643087     0.18400
C499        C  0.65967449  0.02868658  0.09694531     0.12300
C500        C  0.61068756  0.02150297  0.05130912    -0.12000
H501        H  0.63901010  0.03650799  0.99595495     0.12600
C502        C  0.74489170  0.05381967  0.01832478    -0.22900
H503        H  0.71677191  0.04026993  0.07331840     0.08200
C504        C  0.64778130  0.99850851  0.11247787     0.04600
C505        C  0.63985766  0.99709625  0.14301124    -0.20100
C506        C  0.64356467  0.02520422  0.15832423    -0.12400
C507        C  0.65685313  0.05588683  0.14272086     0.13300
C508        C  0.66467402  0.05706814  0.11222314    -0.22800
C509        C  0.64308284  0.96782411  0.09671143    -0.05900
H510        H  0.62983486  0.97355134  0.15477534     0.14800
C511        C  0.66351888  0.08770911  0.15781488    -0.16100
H512        H  0.67453185  0.08029653  0.09999201     0.09100
H513        H  0.75767627  0.05065670  0.03781357     0.07000
H514        H  0.76063503  0.07989308  0.01045963     0.08200
H515        H  0.74302741  0.03636822  0.00040509     0.07200
H516        H  0.61188165  0.04028887  0.06739598     0.02100
H517        H  0.59719404  0.99650208  0.06190554     0.02600
H518        H  0.59623059  0.02101740  0.03144281     0.06100
H519        H  0.63338162  0.94621681  0.11215109     0.05100
H520        H  0.66731583  0.97277804  0.08753827    -0.00700
H521        H  0.62506444  0.96096671  0.07804694     0.00800
H522        H  0.67964846  0.09289489  0.17773211     0.04500
H523        H  0.63970541  0.08568964  0.16459207     0.06400
H524        H  0.67650842  0.10949566  0.14259425     0.07300
C525        C  0.79249414  0.62551487  0.81445579    -0.22300
C526        C  0.76235207  0.59772774  0.82388731     0.09600
C527        C  0.76231688  0.57863133  0.84820939     0.10000
C528        C  0.79218339  0.58896956  0.86370878    -0.17300
C529        C  0.82206440  0.61810211  0.85552983    -0.27700
C530        C  0.82244105  0.63578163  0.82970783     0.18400
C531        C  0.73095110  0.59117147  0.80959983     0.12300
C532        C  0.73054904  0.54820353  0.85854031    -0.12000
H533        H  0.79180394  0.57513397  0.88325162     0.12600
C534        C  0.85380149  0.66510011  0.81718187    -0.22900
H535        H  0.79250035  0.63973993  0.79534507     0.08200
C536        C  0.71757071  0.61139834  0.81645721     0.04600
C537        C  0.68975256  0.60681277  0.80063908    -0.20100
C538        C  0.67452823  0.58218610  0.77831438    -0.12400
C539        C  0.68694556  0.56075585  0.77239288     0.13300
C540        C  0.71510654  0.56559999  0.78819238    -0.22800
C541        C  0.73259923  0.63783174  0.84056283    -0.05900
H542        H  0.67993323  0.62284347  0.80556907     0.14800
C543        C  0.67244630  0.53372328  0.74882172    -0.16100
H544        H  0.72536074  0.54997243  0.78316354     0.09100
H545        H  0.85214846  0.68788876  0.81874200     0.07000
H546        H  0.85656867  0.66026626  0.79323466     0.08200
H547        H  0.87667779  0.66974824  0.82870667     0.07200
H548        H  0.72015389  0.52950295  0.84013475     0.02100
H549        H  0.71203573  0.55522543  0.86504075     0.02600
H550        H  0.73479607  0.53640274  0.87819141     0.06100
H551        H  0.71844287  0.65074692  0.84361728     0.05100
H552        H  0.75865220  0.65688643  0.83459026    -0.00700
H553        H  0.73242405  0.62620696  0.86225040     0.00800
H554        H  0.69214274  0.53801823  0.73235176     0.04500
H555        H  0.65171487  0.53270596  0.73613320     0.06400
H556        H  0.66309404  0.50913133  0.75962223     0.07300
C557        C  0.57312737  0.62762756  0.88976863    -0.22300
C558        C  0.60547420  0.64896076  0.90036935     0.09600
C559        C  0.63295431  0.65965157  0.88098144     0.10000
C560        C  0.62741854  0.64885987  0.85108968    -0.17300
C561        C  0.59496521  0.62774752  0.84001788    -0.27700
C562        C  0.56736967  0.61684243  0.85980516     0.18400
C563        C  0.61003274  0.66006238  0.93191183     0.12300
C564        C  0.66807646  0.68283442  0.89173702    -0.12000
H565        H  0.64864454  0.65736232  0.83623193     0.12600
C566        C  0.53186771  0.59338906  0.85005493    -0.22900
H567        H  0.55231261  0.61951911  0.90508405     0.08200
C568        C  0.60512741  0.68602670  0.94112458     0.04600
C569        C  0.61084157  0.69647831  0.97111028    -0.20100
C570        C  0.62150551  0.68165400  0.99220718    -0.12400
C571        C  0.62612000  0.65524147  0.98272255     0.13300
C572        C  0.62013732  0.64478706  0.95267497    -0.22800
C573        C  0.59447613  0.70310775  0.91917387    -0.05900
H574        H  0.60714974  0.71658564  0.97796618     0.14800
C575        C  0.63809714  0.63834145  0.00354104    -0.16100
H576        H  0.62378801  0.62481649  0.94511360     0.09100
H577        H  0.52455003  0.60551172  0.83292898     0.07000
H578        H  0.51404170  0.58635823  0.86904685     0.08200
H579        H  0.52931482  0.57009548  0.84082324     0.07200
H580        H  0.67410029  0.67088221  0.91006876     0.02100
H581        H  0.67054245  0.70637299  0.90018581     0.02600
H582        H  0.68664532  0.68917380  0.87350142     0.06100
H583        H  0.59235623  0.72337544  0.93000593     0.05100
H584        H  0.56977928  0.68477628  0.90960891    -0.00700
H585        H  0.61306391  0.71419933  0.90074644     0.00800
H586        H  0.61969010  0.62560975  0.02183991     0.04500
H587        H  0.66272335  0.65699943  0.01303769     0.06400
H588        H  0.64116420  0.61910467  0.99175494     0.07300
C589        C  0.67072840  0.61953283  0.61408793    -0.22300
C590        C  0.65836496  0.63615358  0.59760424     0.09600
C591        C  0.63885181  0.64719621  0.61192307     0.10000
C592        C  0.63122326  0.64031471  0.64247134    -0.17300
C593        C  0.64250824  0.62246072  0.65886557    -0.27700
C594        C  0.66367651  0.61309508  0.64469398     0.18400
C595        C  0.66540553  0.64051126  0.56512314     0.12300
C596        C  0.62526356  0.66524076  0.59477437    -0.12000
H597        H  0.61513936  0.64767542  0.65328074     0.12600
C598        C  0.68010721  0.59722050  0.66103904    -0.22900
H599        H  0.68624100  0.61164983  0.60292252     0.08200
C600        C  0.69401872  0.66893401  0.55364827     0.04600
C601        C  0.70095812  0.67051247  0.52288279    -0.20100
C602        C  0.68050432  0.64385227  0.50371630    -0.12400
C603        C  0.65151099  0.61563791  0.51512457     0.13300
C604        C  0.64427472  0.61439442  0.54578839    -0.22800
C605        C  0.71783712  0.69689428  0.57399530    -0.05900
H606        H  0.72330252  0.69196082  0.51395653     0.14800
C607        C  0.62764454  0.58665371  0.49565728    -0.16100
H608        H  0.62235578  0.59261659  0.55481815     0.09100
H609        H  0.70734108  0.61155110  0.65643537     0.07000
H610        H  0.66971365  0.57122781  0.65293696     0.08200
H611        H  0.67733793  0.59713283  0.68570430     0.07200
H612        H  0.60903160  0.64910631  0.57631475     0.02100
H613        H  0.64604829  0.68859807  0.58513539     0.02600
H614        H  0.61026610  0.67191526  0.60939745     0.06100
H615        H  0.73915864  0.71705012  0.56132844     0.05100
H616        H  0.72794187  0.68718121  0.59095934    -0.00700
H617        H  0.70476297  0.70792394  0.58564001     0.00800
H618        H  0.62668158  0.56362576  0.50325186     0.04500
H619        H  0.63461561  0.59039768  0.47159780     0.06400
H620        H  0.60231760  0.58302574  0.49761392     0.07300
C621        C  0.70860955  0.68687515  0.20667477    -0.22300
C622        C  0.70949078  0.70767762  0.22974133     0.09600
C623        C  0.70586748  0.73497891  0.22320616     0.10000
C624        C  0.70092178  0.74070324  0.19350517    -0.17300
C625        C  0.69955112  0.71978458  0.16997380    -0.27700
C626        C  0.70365631  0.69245215  0.17676924     0.18400
C627        C  0.71412882  0.70049423  0.26081604     0.12300
C628        C  0.70686014  0.75787590  0.24766031    -0.12000
H629        H  0.69784400  0.76161409  0.18883658     0.12600
C630        C  0.70283003  0.66885920  0.15312600    -0.22900
H631        H  0.71160895  0.66609002  0.21222068     0.08200
C632        C  0.68696068  0.67750789  0.27839536     0.04600
C633        C  0.69225752  0.67327194  0.30848596    -0.20100
C634        C  0.72409346  0.69182233  0.32157366    -0.12400
C635        C  0.75143121  0.71499866  0.30350949     0.13300
C636        C  0.74596802  0.71860218  0.27327718    -0.22800
C637        C  0.65229626  0.65804374  0.26552311    -0.05900
H638        H  0.67111858  0.65584211  0.32197199     0.14800
C639        C  0.78635385  0.73665502  0.31548602    -0.16100
H640        H  0.76648342  0.73637022  0.25934496     0.09100
H641        H  0.70696815  0.64948716  0.16282221     0.07000
H642        H  0.72281594  0.68283696  0.13632779     0.08200
H643        H  0.67809296  0.65576340  0.14201363     0.07200
H644        H  0.73140628  0.76999490  0.25909329     0.02100
H645        H  0.68683074  0.74336975  0.26430324     0.02600
H646        H  0.70317181  0.77782133  0.23868314     0.06100
H647        H  0.63377819  0.64128935  0.28243121     0.05100
H648        H  0.65186038  0.64247334  0.24644551    -0.00700
H649        H  0.64459266  0.67547843  0.25748390     0.00800
H650        H  0.80424764  0.75225337  0.29767689     0.04500
H651        H  0.79541022  0.72097678  0.32503081     0.06400
H652        H  0.78672060  0.75388394  0.33290881     0.07300
C653        C  0.83340444  0.62816915  0.32511756    -0.22300
C654        C  0.82793219  0.59705354  0.33392003     0.09600
C655        C  0.80652977  0.58043965  0.35826326     0.10000
C656        C  0.79188542  0.59582984  0.37388156    -0.17300
C657        C  0.79799215  0.62764304  0.36586814    -0.27700
C658        C  0.81860344  0.64362330  0.34050766     0.18400
C659        C  0.84782640  0.58431260  0.31939281     0.12300
C660        C  0.79910394  0.54641022  0.36772184    -0.12000
H661        H  0.77570503  0.58284079  0.39273117     0.12600
C662        C  0.82568776  0.67700965  0.32950238    -0.22900
H663        H  0.85008816  0.64080888  0.30642572     0.08200
C664        C  0.84183096  0.57175939  0.28973624     0.04600
C665        C  0.86468081  0.56480704  0.27582835    -0.20100
C666        C  0.89332247  0.57036320  0.29101097    -0.12400
C667        C  0.89745401  0.57993634  0.32166191     0.13300
C668        C  0.87497731  0.58730271  0.33521835    -0.22800
C669        C  0.81184328  0.56650996  0.27264381    -0.05900
H670        H  0.86139907  0.55731716  0.25243106     0.14800
C671        C  0.92565824  0.58328810  0.34065507    -0.16100
H672        H  0.87922113  0.59640428  0.35816521     0.09100
H673        H  0.80202105  0.67486958  0.32230394     0.07000
H674        H  0.84280895  0.68578605  0.30987301     0.08200
H675        H  0.83759892  0.69603917  0.34751028     0.07200
H676        H  0.82233634  0.54762740  0.37499490     0.02100
H677        H  0.78816206  0.52873201  0.34859301     0.02600
H678        H  0.78111940  0.53647717  0.38669061     0.06100
H679        H  0.81057582  0.55602781  0.24993246     0.05100
H680        H  0.81288915  0.59058605  0.26999130    -0.00700
H681        H  0.78877288  0.54883580  0.28502753     0.00800
H682        H  0.94224706  0.60975621  0.34740671     0.04500
H683        H  0.94080821  0.57456425  0.32908717     0.06400
H684        H  0.91527609  0.56789971  0.36116123     0.07300
C685        C  0.95421998  0.60999067  0.04936102    -0.22300
C686        C  0.92892829  0.60453545  0.06958726     0.09600
C687        C  0.90099683  0.60539961  0.05944223     0.10000
C688        C  0.89888677  0.61158656  0.02908963    -0.17300
C689        C  0.92408730  0.61700978  0.00836689    -0.27700
C690        C  0.95229924  0.61621065  0.01887337     0.18400
C691        C  0.93243771  0.59818974  0.10141057     0.12300
C692        C  0.87323672  0.59942397  0.08060261    -0.12000
H693        H  0.87717746  0.61212807  0.02161646     0.12600
C694        C  0.98066664  0.62202744  0.99857548    -0.22900
H695        H  0.97566957  0.60939184  0.05761376     0.08200
C696        C  0.92623733  0.56687422  0.11095809     0.04600
C697        C  0.93180825  0.56263361  0.14101221    -0.20100
C698        C  0.94322960  0.58892279  0.16195804    -0.12400
C699        C  0.94817995  0.62009240  0.15236384     0.13300
C700        C  0.94286177  0.62423108  0.12215292    -0.22800
C701        C  0.91360607  0.53792776  0.08941919    -0.05900
H702        H  0.92741814  0.53855192  0.14808045     0.14800
C703        C  0.95982661  0.64948843  0.17327132    -0.16100
H704        H  0.94729188  0.64814867  0.11445091     0.09100
H705        H  0.97139926  0.60260824  0.98077131     0.07000
H706        H  0.00050796  0.62075949  0.01096717     0.08200
H707        H  0.99224456  0.64719246  0.98839128     0.07200
H708        H  0.88302009  0.61875919  0.09848308     0.02100
H709        H  0.86247033  0.57443576  0.09099296     0.02600
H710        H  0.85288741  0.60041431  0.06888028     0.06100
H711        H  0.90945779  0.51498140  0.10068022     0.05100
H712        H  0.93198904  0.54401102  0.07109570    -0.00700
H713        H  0.88954310  0.53256354  0.07966290     0.00800
H714        H  0.98440081  0.65646972  0.18295415     0.04500
H715        H  0.94121559  0.64322740  0.19143667     0.06400
H716        H  0.96283269  0.67173885  0.16151338     0.07300
C717        C  0.67896126  0.79945059  0.50199775    -0.22300
C718        C  0.70984495  0.81921973  0.48780482     0.09600
C719        C  0.72555671  0.85420944  0.48924896     0.10000
C720        C  0.71061950  0.86869936  0.50587183    -0.17300
C721        C  0.68003751  0.84906421  0.52096522    -0.27700
C722        C  0.66370870  0.81377681  0.51845584     0.18400
C723        C  0.72489388  0.80247280  0.47130165     0.12300
C724        C  0.75839763  0.87621721  0.47371190    -0.12000
H725        H  0.72318492  0.89563936  0.50735122     0.12600
C726        C  0.63072711  0.79080980  0.53350710    -0.22900
H727        H  0.66688146  0.77254527  0.50035918     0.08200
C728        C  0.74112011  0.78834850  0.48641861     0.04600
C729        C  0.75143213  0.76933473  0.47018412    -0.20100
C730        C  0.74549342  0.76388070  0.43926077    -0.12400
C731        C  0.73164533  0.78032339  0.42384140     0.13300
C732        C  0.72121620  0.79909739  0.44011739    -0.22800
C733        C  0.74659042  0.79250216  0.51979320    -0.05900
H734        H  0.76187973  0.75667393  0.48205518     0.14800
C735        C  0.72715679  0.77826891  0.39026574    -0.16100
H736        H  0.70935188  0.81050868  0.42847831     0.09100
H737        H  0.63277184  0.79529436  0.55805914     0.07000
H738        H  0.62241718  0.76414393  0.52976966     0.08200
H739        H  0.61123011  0.79500037  0.52425134     0.07200
H740        H  0.75554006  0.87135947  0.44919022     0.02100
H741        H  0.77740163  0.87095727  0.48239326     0.02600
H742        H  0.76759723  0.90308110  0.47743983     0.06100
H743        H  0.75989439  0.78014979  0.52804294     0.05100
H744        H  0.72225189  0.78131100  0.53162483    -0.00700
H745        H  0.76177294  0.81944144  0.52548634     0.00800
H746        H  0.70017103  0.76518945  0.38481606     0.04500
H747        H  0.73838098  0.76518343  0.37898426     0.06400
H748        H  0.73955896  0.80385430  0.38086485     0.07300
C749        C  0.61966388  0.76653559  0.65347554    -0.22300
C750        C  0.58759101  0.75155184  0.66581587     0.09600
C751        C  0.56832062  0.76639019  0.66187000     0.10000
C752        C  0.58136577  0.79574629  0.64497174    -0.17300
C753        C  0.61363104  0.81110103  0.63233384    -0.27700
C754        C  0.63318827  0.79624711  0.63703652     0.18400
C755        C  0.57602681  0.72152710  0.68449180     0.12300
C756        C  0.53413880  0.75133368  0.67569058    -0.12000
H757        H  0.56624705  0.80686707  0.64186320     0.12600
C758        C  0.66824894  0.81109272  0.62509757    -0.22900
H759        H  0.63434690  0.75502736  0.65714215     0.08200
C760        C  0.56097155  0.68929226  0.67179004     0.04600
C761        C  0.55582051  0.66246475  0.68972710    -0.20100
C762        C  0.56622738  0.66751039  0.71977277    -0.12400
C763        C  0.57906990  0.69945918  0.73294788     0.13300
C764        C  0.58367682  0.72604830  0.71508025    -0.22800
C765        C  0.55164992  0.68354354  0.63910820    -0.05900
H766        H  0.54586658  0.63797445  0.67967383     0.14800
C767        C  0.58821720  0.70583797  0.76571755    -0.16100
H768        H  0.59483191  0.75088263  0.72464632     0.09100
H769        H  0.67911915  0.79557179  0.63069680     0.07000
H770        H  0.68461058  0.83611149  0.63519164     0.08200
H771        H  0.66846524  0.81306999  0.60032329     0.07200
H772        H  0.53598584  0.75048232  0.70044733     0.02100
H773        H  0.51777567  0.72561248  0.66701657     0.02600
H774        H  0.52231130  0.76606013  0.67045361     0.06100
H775        H  0.54026863  0.65686425  0.63275796     0.05100
H776        H  0.57420081  0.69836994  0.62503647    -0.00700
H777        H  0.53335901  0.69125444  0.63426325     0.00800
H778        H  0.59518215  0.73150574  0.77252616     0.04500
H779        H  0.60992233  0.70313774  0.77050143     0.06400
H780        H  0.56662143  0.68803726  0.77965347     0.07300
C781        C  0.57898626  0.93577428  0.38694459    -0.22300
C782        C  0.60748230  0.95930508  0.40233238     0.09600
C783        C  0.63232293  0.98769080  0.38715977     0.10000
C784        C  0.62833803  0.99150908  0.35649220    -0.17300
C785        C  0.60002015  0.96751937  0.34052526    -0.27700
C786        C  0.57466818  0.93937164  0.35639734     0.18400
C787        C  0.61155439  0.95193368  0.43372290     0.12300
C788        C  0.66295803  0.01385907  0.40338750    -0.12000
H789        H  0.64766684  0.01333388  0.34495006     0.12600
C790        C  0.54298000  0.91255479  0.34180380    -0.22900
H791        H  0.56014484  0.91401289  0.39898931     0.08200
C792        C  0.59548631  0.95761133  0.45786841     0.04600
C793        C  0.59778301  0.94722785  0.48682482    -0.20100
C794        C  0.61512143  0.93055161  0.49192971    -0.12400
C795        C  0.63162011  0.92534800  0.46756610     0.13300
C796        C  0.62964547  0.93622806  0.43884643    -0.22800
C797        C  0.57580835  0.97441972  0.45296955    -0.05900
H798        H  0.58543841  0.95150391  0.50538083     0.14800
C799        C  0.65201617  0.90904502  0.47154769    -0.16100
H800        H  0.64173476  0.93189872  0.42007802     0.09100
H801        H  0.52648179  0.89277532  0.35791389     0.07000
H802        H  0.54898133  0.90028213  0.32350924     0.08200
H803        H  0.52862263  0.92351870  0.33293729     0.07200
H804        H  0.67705973  0.00265884  0.41233528     0.02100
H805        H  0.65550913  0.02423510  0.42227752     0.02600
H806        H  0.67980149  0.03474168  0.38834700     0.06100
H807        H  0.56503088  0.97722602  0.47424763     0.05100
H808        H  0.55499504  0.95941879  0.43719386    -0.00700
H809        H  0.59229065  0.99961876  0.44339105     0.00800
H810        H  0.63566074  0.88259197  0.47820304     0.04500
H811        H  0.67142678  0.92262420  0.48889551     0.06400
H812        H  0.66485326  0.90920998  0.45046950     0.07300
C813        C  0.71012254  0.96691148  0.71995745    -0.22300
C814        C  0.69240579  0.98138258  0.73099509     0.09600
C815        C  0.67044951  0.98490838  0.71200160     0.10000
C816        C  0.66684730  0.97394730  0.68212605    -0.17300
C817        C  0.68426227  0.95901899  0.67103278    -0.27700
C818        C  0.70624906  0.95549374  0.69025387     0.18400
C819        C  0.69868058  0.99398977  0.76220950     0.12300
C820        C  0.65056728  0.99978625  0.72339993    -0.12000
H821        H  0.64985764  0.97647379  0.66749680     0.12600
C822        C  0.72660509  0.94084115  0.67947719    -0.22900
H823        H  0.72720517  0.96471457  0.73471518     0.08200
C824        C  0.68451559  0.97237378  0.78684727     0.04600
C825        C  0.69369814  0.98522873  0.81603005    -0.20100
C826        C  0.71692781  0.01925779  0.82117732    -0.12400
C827        C  0.73027806  0.04107210  0.79619360     0.13300
C828        C  0.72097763  0.02801278  0.76708484    -0.22800
C829        C  0.65969925  0.93578513  0.78229518    -0.05900
H830        H  0.68301368  0.96844027  0.83486771     0.14800
C831        C  0.75388428  0.07816645  0.79964744    -0.16100
H832        H  0.73154369  0.04431128  0.74790586     0.09100
H833        H  0.70999674  0.91412673  0.67364882     0.07000
H834        H  0.74410536  0.94227989  0.69697635     0.08200
H835        H  0.74156996  0.95474244  0.65955416     0.07200
H836        H  0.66765584  0.02581361  0.73101908     0.02100
H837        H  0.63464270  0.98482404  0.74249661     0.02600
H838        H  0.63412279  0.00017194  0.70574111     0.06100
H839        H  0.65062166  0.92245638  0.80397212     0.05100
H840        H  0.67142039  0.92406792  0.76946951    -0.00700
H841        H  0.63786654  0.93261941  0.76965346     0.00800
H842        H  0.77775879  0.08323287  0.80956504     0.04500
H843        H  0.74238291  0.08897302  0.81409036     0.06400
H844        H  0.75992392  0.09120879  0.77773533     0.07300
C845        C  0.91498711  0.72320023  0.56303390    -0.22300
C846        C  0.91341832  0.72453174  0.53175143     0.09600
C847        C  0.94247080  0.73486941  0.51439618     0.10000
C848        C  0.97233418  0.74283204  0.52874371    -0.17300
C849        C  0.97352020  0.73996139  0.55992468    -0.27700
C850        C  0.94465133  0.73058757  0.57736579     0.18400
C851        C  0.88084510  0.71344376  0.51735308     0.12300
C852        C  0.94153761  0.73589343  0.48066341    -0.12000
H853        H  0.99430772  0.74933511  0.51543050     0.12600
C854        C  0.94421745  0.72790875  0.61106603    -0.22900
H855        H  0.89269918  0.71552201  0.57627765     0.08200
C856        C  0.85678476  0.67925775  0.51373833     0.04600
C857        C  0.82788016  0.66986290  0.49701407    -0.20100
C858        C  0.82274277  0.69390306  0.48360611    -0.12400
C859        C  0.84582139  0.72816626  0.48908986     0.13300
C860        C  0.87472781  0.73746773  0.50566912    -0.22800
C861        C  0.86236747  0.65272717  0.52630748    -0.05900
H862        H  0.81020043  0.64365591  0.49293210     0.14800
C863        C  0.84066132  0.75556917  0.47817635    -0.16100
H864        H  0.89292512  0.76367584  0.50909381     0.09100
H865        H  0.92635396  0.70177079  0.61781396     0.07000
H866        H  0.93611115  0.74437047  0.62109549     0.08200
H867        H  0.96898972  0.73553251  0.62057608     0.07200
H868        H  0.93435986  0.75402384  0.47358209     0.02100
H869        H  0.92309355  0.71077488  0.47182744     0.02600
H870        H  0.96618579  0.74355697  0.47051963     0.06100
H871        H  0.84146652  0.62726079  0.52082742     0.05100
H872        H  0.86450910  0.65509943  0.55109055    -0.00700
H873        H  0.88565414  0.65550030  0.51682687     0.00800
H874        H  0.84220308  0.77145339  0.49744710     0.04500
H875        H  0.81594941  0.74598303  0.46781102     0.06400
H876        H  0.86034951  0.77121797  0.46163667     0.07300
C877        C  0.00936128  0.66458242  0.44647096    -0.22300
C878        C  0.03731580  0.67573602  0.42788842     0.09600
C879        C  0.06946990  0.69672301  0.43970381     0.10000
C880        C  0.07302139  0.70491288  0.47029269    -0.17300
C881        C  0.04517558  0.69263389  0.48946755    -0.27700
C882        C  0.01273827  0.67260046  0.47714341     0.18400
C883        C  0.03246519  0.66260678  0.39686234     0.12300
C884        C  0.10008018  0.70969719  0.42023076    -0.12000
H885        H  0.09784227  0.72080439  0.47931612     0.12600
C886        C  0.98152239  0.65837715  0.49601590    -0.22900
H887        H  0.98478203  0.64860798  0.43700581     0.08200
C888        C  0.02454947  0.62964671  0.39133091     0.04600
C889        C  0.02092727  0.61819431  0.36172713    -0.20100
C890        C  0.02502955  0.63881206  0.33722113    -0.12400
C891        C  0.03292424  0.67204943  0.34294797     0.13300
C892        C  0.03651323  0.68340837  0.37275510    -0.22800
C893        C  0.02042469  0.60663059  0.41668769    -0.05900
H894        H  0.01455975  0.59269300  0.35781997     0.14800
C895        C  0.03804113  0.69601087  0.31814973    -0.16100
H896        H  0.04257630  0.70869320  0.37737137     0.09100
H897        H  0.95875547  0.64204522  0.48268880     0.07000
H898        H  0.97876573  0.67884070  0.50543677     0.08200
H899        H  0.98263992  0.64310760  0.51441819     0.07200
H900        H  0.09926361  0.72530297  0.40200968     0.02100
H901        H  0.10117342  0.68849131  0.41024282     0.02600
H902        H  0.12333607  0.72526145  0.43320077     0.06100
H903        H  0.01525477  0.58200120  0.40835219     0.05100
H904        H  0.99925009  0.60226660  0.43124444    -0.00700
H905        H  0.04360873  0.61791679  0.43022578     0.00800
H906        H  0.04529803  0.72109828  0.32699879     0.04500
H907        H  0.01454690  0.68667460  0.30539585     0.06400
H908        H  0.05826308  0.69905586  0.30293068     0.07300
C909        C  0.00774766  0.67643874  0.72040549    -0.22300
C910        C  0.00616963  0.70106420  0.73694911     0.09600
C911        C  0.01310614  0.73085035  0.72298276     0.10000
C912        C  0.02097922  0.73516290  0.69241985    -0.17300
C913        C  0.02194368  0.71030349  0.67523692    -0.27700
C914        C  0.01543112  0.68046578  0.68968304     0.18400
C915        C  0.99434506  0.69407246  0.76826704     0.12300
C916        C  0.01142936  0.75778240  0.74019563    -0.12000
H917        H  0.02610474  0.75815650  0.68192797     0.12600
C918        C  0.01606714  0.65247103  0.67334440    -0.22900
H919        H  0.00218143  0.65361125  0.73156914     0.08200
C920        C  0.96003996  0.67421862  0.77468977     0.04600
C921        C  0.94932999  0.67055848  0.80446607    -0.20100
C922        C  0.97205377  0.68630716  0.82804399    -0.12400
C923        C  0.00663332  0.70549025  0.82163458     0.13300
C924        C  0.01734065  0.70912160  0.79166383    -0.22800
C925        C  0.93464285  0.65766112  0.75005646    -0.05900
H926        H  0.92286112  0.65545831  0.80935166     0.14800
C927        C  0.03218670  0.72331542  0.84590089    -0.16100
H928        H  0.04365444  0.72437998  0.78631918     0.09100
H929        H  0.01037485  0.63140292  0.68847885     0.07000
H930        H  0.04121770  0.66161025  0.66378524     0.08200
H931        H  0.99709376  0.64249937  0.65526142     0.07200
H932        H  0.02988687  0.76712897  0.75869798     0.02100
H933        H  0.98603688  0.74762650  0.74971399     0.02600
H934        H  0.01702226  0.77928104  0.72569611     0.06100
H935        H  0.90879736  0.64359735  0.75904989     0.05100
H936        H  0.93927574  0.63983918  0.73758075    -0.00700
H937        H  0.93637550  0.67681101  0.73434901     0.00800
H938        H  0.03210432  0.70492036  0.86153155     0.04500
H939        H  0.02650578  0.74038525  0.85842640     0.06400
H940        H  0.05778031  0.73843113  0.83652853     0.07300
C941        C  0.37823387  0.44826566  0.65203009    -0.22300
C942        C  0.40494122  0.46661686  0.63229149     0.09600
C943        C  0.39976025  0.46166283  0.60107967     0.10000
C944        C  0.36816001  0.43725894  0.59036132    -0.17300
C945        C  0.34200058  0.41752310  0.61028470    -0.27700
C946        C  0.34679196  0.42386319  0.64145002     0.18400
C947        C  0.43844704  0.48851415  0.64540845     0.12300
C948        C  0.42771143  0.48156222  0.57925614    -0.12000
H949        H  0.36445466  0.43217210  0.56650011     0.12600
C950        C  0.31938752  0.40517094  0.66417049    -0.22900
H951        H  0.38224836  0.45230537  0.67599134     0.08200
C952        C  0.44680838  0.51857988  0.66009750     0.04600
C953        C  0.47609584  0.53503805  0.67719157    -0.20100
C954        C  0.49716501  0.52206826  0.68006361    -0.12400
C955        C  0.48953545  0.49270275  0.66408262     0.13300
C956        C  0.46037535  0.47653810  0.64675112    -0.22800
C957        C  0.42453218  0.53292442  0.65813792    -0.05900
H958        H  0.48205224  0.55764412  0.68926077     0.14800
C959        C  0.50984436  0.47615563  0.66628028    -0.16100
H960        H  0.45363048  0.45320241  0.63561031     0.09100
H961        H  0.31593921  0.42321932  0.67763542     0.07000
H962        H  0.32636605  0.39111040  0.67943201     0.08200
H963        H  0.29501593  0.38743194  0.65378750     0.07200
H964        H  0.44834286  0.47685649  0.58306664     0.02100
H965        H  0.43718154  0.50855396  0.58239611     0.02600
H966        H  0.41934185  0.47482104  0.55564918     0.06100
H967        H  0.43512336  0.55697037  0.67046293     0.05100
H968        H  0.39970824  0.51532793  0.66794047    -0.00700
H969        H  0.42144482  0.53743751  0.63428259     0.00800
H970        H  0.49373691  0.45024819  0.67452655     0.04500
H971        H  0.53123464  0.48884258  0.68175141     0.06400
H972        H  0.51950509  0.47524860  0.64371345     0.07300
C973        C  0.46694881  0.08306968  0.35599777    -0.22300
C974        C  0.45823805  0.04999089  0.35042443     0.09600
C975        C  0.42846758  0.02363024  0.36241038     0.10000
C976        C  0.40861047  0.03086666  0.38061059    -0.17300
C977        C  0.41692798  0.06392799  0.38654351    -0.27700
C978        C  0.44643279  0.09042853  0.37363733     0.18400
C979        C  0.48046328  0.04297782  0.33218181     0.12300
C980        C  0.41717515  0.98774382  0.35543493    -0.12000
H981        H  0.38580987  0.01018947  0.38964493     0.12600
C982        C  0.45663649  0.12631560  0.37832637    -0.22900
H983        H  0.48979525  0.10312090  0.34639368     0.08200
C984        C  0.48032136  0.04390428  0.30061439     0.04600
C985        C  0.49966685  0.03420581  0.28432998    -0.20100
C986        C  0.51848563  0.02273541  0.29883874    -0.12400
C987        C  0.51860589  0.02189721  0.33058597     0.13300
C988        C  0.49982211  0.03239352  0.34681550    -0.22800
C989        C  0.45896176  0.05408991  0.28414626    -0.05900
H990        H  0.49933367  0.03470276  0.26003045     0.14800
C991        C  0.53870981  0.01050009  0.34758069    -0.16100
H992        H  0.49949514  0.03155896  0.37110995     0.09100
H993        H  0.48093777  0.14361014  0.36744198     0.07000
H994        H  0.45911258  0.13223368  0.40266928     0.08200
H995        H  0.43768346  0.13082230  0.36829565     0.07200
H996        H  0.43564008  0.98166313  0.36394281     0.02100
H997        H  0.41453471  0.98361223  0.33079904     0.02600
H998        H  0.39271493  0.97022312  0.36595388     0.06100
H999        H  0.46143402  0.05296622  0.25943728     0.05100
H1000       H  0.46645478  0.08004074  0.29032243    -0.00700
H1001       H  0.43236364  0.03711321  0.29018376     0.00800
H1002       H  0.53718124  0.01326456  0.37219995     0.04500
H1003       H  0.56534914  0.02558440  0.34091615     0.06400
H1004       H  0.52913491  0.98374023  0.34292503     0.07300
C1005       C  0.18014723  0.92075979  0.44259267    -0.22300
C1006       C  0.17734857  0.92207171  0.47378263     0.09600
C1007       C  0.19500771  0.95299991  0.48886637     0.10000
C1008       C  0.21684623  0.98175594  0.47257334    -0.17300
C1009       C  0.22211005  0.97992225  0.44181607    -0.27700
C1010       C  0.20231424  0.94940121  0.42636204     0.18400
C1011       C  0.15941840  0.89045756  0.49062534     0.12300
C1012       C  0.19232979  0.95530499  0.52238113    -0.12000
H1013       H  0.23200493  0.00493424  0.48435640     0.12600
C1014       C  0.20464282  0.94611785  0.39291811    -0.22900
H1015       H  0.16618984  0.89702452  0.43107931     0.08200
C1016       C  0.12531020  0.87518887  0.49785068     0.04600
C1017       C  0.11038217  0.84632561  0.51560297    -0.20100
C1018       C  0.12880564  0.83229267  0.52581352    -0.12400
C1019       C  0.16294503  0.84742498  0.51807331     0.13300
C1020       C  0.17769357  0.87620847  0.50038157    -0.22800
C1021       C  0.10487537  0.88944792  0.48692150    -0.05900
H1022       H  0.08426112  0.83468165  0.52162435     0.14800
C1023       C  0.18509809  0.83510702  0.52912287    -0.16100
H1024       H  0.20397131  0.88822157  0.49480147     0.09100
H1025       H  0.17958556  0.93599278  0.38281153     0.07000
H1026       H  0.21358332  0.92873842  0.38802344     0.08200
H1027       H  0.22166170  0.97032486  0.38192604     0.07200
H1028       H  0.20081455  0.93992840  0.53371609     0.02100
H1029       H  0.16604671  0.94612850  0.52875169     0.02600
H1030       H  0.20787810  0.98136824  0.53059796     0.06100
H1031       H  0.07853738  0.87438746  0.49452621     0.05100
H1032       H  0.10512761  0.88990384  0.46202389    -0.00700
H1033       H  0.11544337  0.91525074  0.49556040     0.00800
H1034       H  0.19500483  0.82794292  0.50965874     0.04500
H1035       H  0.17229936  0.81342463  0.54429261     0.06400
H1036       H  0.20636822  0.85538487  0.54174600     0.07300
C1037       C  0.25270669  0.12972319  0.50202026    -0.22300
C1038       C  0.27478239  0.16176066  0.51291887     0.09600
C1039       C  0.30946318  0.17613396  0.50861539     0.10000
C1040       C  0.32125662  0.15836678  0.49249980    -0.17300
C1041       C  0.29899715  0.12700836  0.48008189    -0.27700
C1042       C  0.26433454  0.11222450  0.48543756     0.18400
C1043       C  0.26088958  0.18079419  0.52677473     0.12300
C1044       C  0.33382004  0.21065736  0.52008578    -0.12000
H1045       H  0.34775225  0.16971989  0.48820794     0.12600
C1046       C  0.23948317  0.07791290  0.47390979    -0.22900
H1047       H  0.22614678  0.11888411  0.50563893     0.08200
C1048       C  0.25184238  0.19967019  0.50898624     0.04600
C1049       C  0.24186127  0.21997618  0.52302447    -0.20100
C1050       C  0.24108162  0.22213099  0.55440672    -0.12400
C1051       C  0.24848906  0.20182111  0.57220338     0.13300
C1052       C  0.25805326  0.18113436  0.55804809    -0.22800
C1053       C  0.25431026  0.19964281  0.47526436    -0.05900
H1054       H  0.23681653  0.23603743  0.50947711     0.14800
C1055       C  0.24889946  0.20294071  0.60600264    -0.16100
H1056       H  0.26483870  0.16634746  0.57152859     0.09100
H1057       H  0.23914370  0.07773389  0.44904782     0.07000
H1058       H  0.21376882  0.06946087  0.48178837     0.08200
H1059       H  0.24635287  0.05999850  0.48215666     0.07200
H1060       H  0.33156037  0.21141750  0.54483150     0.02100
H1061       H  0.32848025  0.22895098  0.50980384     0.02600
H1062       H  0.35997886  0.21826882  0.51458913     0.06100
H1063       H  0.24670851  0.21619280  0.46482135     0.05100
H1064       H  0.23779077  0.17398805  0.46650030    -0.00700
H1065       H  0.28042390  0.20853589  0.46842540     0.00800
H1066       H  0.23150293  0.17758713  0.61485931     0.04500
H1067       H  0.24130138  0.21993296  0.61547448     0.06400
H1068       H  0.27444547  0.21133931  0.61411701     0.07300
C1069       C  0.85682558  0.21251009  0.84393101    -0.22300
C1070       C  0.84041510  0.22597558  0.82878870     0.09600
C1071       C  0.80535216  0.20959362  0.82988660     0.10000
C1072       C  0.78739814  0.17997634  0.84646965    -0.17300
C1073       C  0.80379890  0.16638618  0.86191113    -0.27700
C1074       C  0.83920499  0.18319926  0.86069185     0.18400
C1075       C  0.86119640  0.25754126  0.81231683     0.12300
C1076       C  0.78706034  0.22367822  0.81399147    -0.12000
H1077       H  0.76042910  0.16739923  0.84737046     0.12600
C1078       C  0.85906877  0.17149780  0.87773550    -0.22900
H1079       H  0.88382318  0.22543081  0.84288375     0.08200
C1080       C  0.88065579  0.28794787  0.82785482     0.04600
C1081       C  0.90475207  0.31602824  0.81214391    -0.20100
C1082       C  0.90968463  0.31441243  0.78129141    -0.12400
C1083       C  0.88911283  0.28438581  0.76542120     0.13300
C1084       C  0.86498966  0.25628195  0.78120983    -0.22800
C1085       C  0.87648185  0.29055590  0.86111354    -0.05900
H1086       H  0.92068044  0.33909835  0.82417535     0.14800
C1087       C  0.89314943  0.28047302  0.73235144    -0.16100
H1088       H  0.85019991  0.23277421  0.76943202     0.09100
H1089       H  0.85278117  0.16945133  0.90197463     0.07000
H1090       H  0.88635931  0.18911477  0.87555532     0.08200
H1091       H  0.85381392  0.14705453  0.86886078     0.07200
H1092       H  0.79208459  0.22494308  0.78953113     0.02100
H1093       H  0.79558604  0.24914485  0.82261489     0.02600
H1094       H  0.75968090  0.20806063  0.81748262     0.06100
H1095       H  0.89316188  0.31635103  0.86955354     0.05100
H1096       H  0.88250650  0.27382438  0.87345899    -0.00700
H1097       H  0.85032937  0.28334711  0.86605837     0.00800
H1098       H  0.89931934  0.26074001  0.72886634     0.04500
H1099       H  0.91308475  0.30360950  0.72176188     0.06400
H1100       H  0.86940317  0.27300458  0.72066105     0.07300
C1101       C  0.14584450  0.40603384  0.71856869    -0.22300
C1102       C  0.14554785  0.40463575  0.68717029     0.09600
C1103       C  0.12559992  0.41361201  0.67094815     0.10000
C1104       C  0.10499959  0.42214366  0.68660596    -0.17300
C1105       C  0.10335296  0.42120346  0.71806350    -0.27700
C1106       C  0.12475281  0.41395142  0.73433241     0.18400
C1107       C  0.16272527  0.38957998  0.67176475     0.12300
C1108       C  0.12452630  0.41219476  0.63716093    -0.12000
H1109       H  0.08812746  0.42706929  0.67420949     0.12600
C1110       C  0.12419357  0.41162147  0.76806630    -0.22900
H1111       H  0.16113785  0.39891705  0.73086523     0.08200
C1112       C  0.19544675  0.40900541  0.66075022     0.04600
C1113       C  0.20931588  0.39353064  0.64413615    -0.20100
C1114       C  0.19120164  0.35892789  0.63810070    -0.12400
C1115       C  0.15855201  0.33935397  0.65031895     0.13300
C1116       C  0.14492465  0.35507255  0.66696834    -0.22800
C1117       C  0.21553558  0.44605875  0.66634331    -0.05900
H1118       H  0.23442524  0.40888625  0.63540966     0.14800
C1119       C  0.13741625  0.30211880  0.64581179    -0.16100
H1120       H  0.11974596  0.34044390  0.67581209     0.09100
H1121       H  0.14953175  0.42907796  0.77694879     0.07000
H1122       H  0.11666183  0.38583054  0.77470777     0.08200
H1123       H  0.10682424  0.41792343  0.77889953     0.07200
H1124       H  0.11575323  0.38638209  0.62939109     0.02100
H1125       H  0.14978300  0.42925969  0.62789285     0.02600
H1126       H  0.10734861  0.41972708  0.62804519     0.06100
H1127       H  0.24080648  0.45762337  0.65618482     0.05100
H1128       H  0.21842448  0.45100168  0.69085477    -0.00700
H1129       H  0.20267987  0.45815897  0.65654806     0.00800
H1130       H  0.13223544  0.29620245  0.62158553     0.04500
H1131       H  0.15038470  0.28986451  0.65507027     0.06400
H1132       H  0.11296274  0.29130834  0.65744290     0.07300
C1133       C  0.08621031  0.62557585  0.65525359    -0.22300
C1134       C  0.06406153  0.59319341  0.64477612     0.09600
C1135       C  0.04970236  0.58862254  0.61611722     0.10000
C1136       C  0.05638892  0.61657999  0.59925441    -0.17300
C1137       C  0.07722890  0.64916894  0.61020207    -0.27700
C1138       C  0.09326102  0.65368586  0.63821110     0.18400
C1139       C  0.05466097  0.56435842  0.66468721     0.12300
C1140       C  0.02703923  0.55421699  0.60340266    -0.12000
H1141       H  0.04436719  0.61290513  0.57768638     0.12600
C1142       C  0.11661386  0.68783561  0.65093663    -0.22900
H1143       H  0.09722113  0.62882813  0.67724703     0.08200
C1144       C  0.07644201  0.55264649  0.67030624     0.04600
C1145       C  0.06543023  0.52412075  0.68803717    -0.20100
C1146       C  0.03305481  0.50684097  0.70039858    -0.12400
C1147       C  0.01146829  0.51928876  0.69509788     0.13300
C1148       C  0.02274939  0.54789953  0.67745687    -0.22800
C1149       C  0.11107426  0.56990506  0.65715521    -0.05900
H1150       H  0.08230247  0.51511038  0.69200222     0.14800
C1151       C  0.97668908  0.50319401  0.70799111    -0.16100
H1152       H  0.00635003  0.55746384  0.67321999     0.09100
H1153       H  0.12620902  0.68660412  0.67332139     0.07000
H1154       H  0.10357442  0.70191949  0.65347027     0.08200
H1155       H  0.13834619  0.70137247  0.63568928     0.07200
H1156       H  0.00441180  0.54039177  0.61757343     0.02100
H1157       H  0.04040782  0.54034824  0.60256841     0.02600
H1158       H  0.01882057  0.55518116  0.58030489     0.06100
H1159       H  0.12464226  0.55707567  0.66320185     0.05100
H1160       H  0.12567215  0.59589694  0.66569818    -0.00700
H1161       H  0.10966129  0.57025833  0.63232703     0.00800
H1162       H  0.96423537  0.51720296  0.70218952     0.04500
H1163       H  0.97766782  0.50246446  0.73283676     0.06400
H1164       H  0.96103449  0.47758169  0.69882317     0.07300
C1165       C  0.97130890  0.50339715  0.84883501    -0.22300
C1166       C  0.93724072  0.49198277  0.84655293     0.09600
C1167       C  0.91665453  0.46399730  0.82860629     0.10000
C1168       C  0.93096007  0.44899969  0.81200446    -0.17300
C1169       C  0.96555962  0.46157725  0.81261540    -0.27700
C1170       C  0.98583921  0.48854072  0.83222002     0.18400
C1171       C  0.92463542  0.51214526  0.86038224     0.12300
C1172       C  0.87967757  0.45030009  0.82668550    -0.12000
H1173       H  0.91503357  0.42807999  0.79754635     0.12600
C1174       C  0.02265589  0.50200408  0.83592537    -0.22900
H1175       H  0.98682273  0.52490462  0.86289615     0.08200
C1176       C  0.91927234  0.51209177  0.89154796     0.04600
C1177       C  0.91142791  0.53500784  0.90368647    -0.20100
C1178       C  0.90941476  0.55807165  0.88522249    -0.12400
C1179       C  0.91268151  0.55655795  0.85378536     0.13300
C1180       C  0.92039938  0.53367430  0.84179396    -0.22800
C1181       C  0.92277329  0.48856442  0.91192940    -0.05900
H1182       H  0.90919703  0.53648573  0.92777499     0.14800
C1183       C  0.90886301  0.57919525  0.83233778    -0.16100
H1184       H  0.92423147  0.53335662  0.81781782     0.09100
H1185       H  0.03364064  0.52128509  0.85384737     0.07000
H1186       H  0.03616172  0.51389899  0.81483759     0.08200
H1187       H  0.02681072  0.48149415  0.84217618     0.07200
H1188       H  0.87494041  0.46937118  0.81729370     0.02100
H1189       H  0.86844415  0.44323888  0.84942675     0.02600
H1190       H  0.86706490  0.42783617  0.81207568     0.06100
H1191       H  0.91739580  0.49155412  0.93565504     0.05100
H1192       H  0.94859089  0.49339951  0.91069935    -0.00700
H1193       H  0.90503918  0.46242811  0.90495147     0.00800
H1194       H  0.93285920  0.59539707  0.82053657     0.04500
H1195       H  0.90106282  0.59528878  0.84359699     0.06400
H1196       H  0.88946592  0.56386072  0.81547799     0.07300
C1197       C  0.41070432  0.25816321  0.28538204    -0.22300
C1198       C  0.40272419  0.25604372  0.31596616     0.09600
C1199       C  0.40424655  0.28370989  0.33056125     0.10000
C1200       C  0.41205045  0.31217555  0.31380822    -0.17300
C1201       C  0.41783838  0.31336146  0.28281989    -0.27700
C1202       C  0.41794694  0.28637513  0.26855359     0.18400
C1203       C  0.39073609  0.22394850  0.33179920     0.12300
C1204       C  0.39581302  0.28253208  0.36337496    -0.12000
H1205       H  0.41146873  0.33273179  0.32455283     0.12600
C1206       C  0.42484554  0.28628806  0.23553872    -0.22900
H1207       H  0.41004006  0.23712830  0.27431908     0.08200
C1208       C  0.35861860  0.19606515  0.32654367     0.04600
C1209       C  0.34761944  0.16674270  0.34312182    -0.20100
C1210       C  0.36759237  0.16473160  0.36547928    -0.12400
C1211       C  0.40013221  0.19285877  0.37039765     0.13300
C1212       C  0.41126888  0.22178615  0.35318178    -0.22800
C1213       C  0.33543253  0.19761100  0.30418038    -0.05900
H1214       H  0.32275208  0.14566177  0.33925133     0.14800
C1215       C  0.42353757  0.19311905  0.39368376    -0.16100
H1216       H  0.43595795  0.24328976  0.35689254     0.09100
H1217       H  0.40257735  0.26555327  0.22435578     0.07000
H1218       H  0.44623994  0.28255347  0.23231981     0.08200
H1219       H  0.43125041  0.31000428  0.22443716     0.07200
H1220       H  0.41371381  0.27936140  0.37704888     0.02100
H1221       H  0.37014409  0.26134727  0.36758816     0.02600
H1222       H  0.39701855  0.30580781  0.37089154     0.06100
H1223       H  0.31082740  0.17404040  0.30357739     0.05100
H1224       H  0.34641397  0.20198306  0.28135061    -0.00700
H1225       H  0.33122011  0.21819834  0.31027834     0.00800
H1226       H  0.44845193  0.21630773  0.39276010     0.04500
H1227       H  0.42721551  0.17179651  0.38993188     0.06400
H1228       H  0.41336192  0.19179951  0.41650906     0.07300
C1229       C  0.28805978  0.33356332  0.43901927    -0.22300
C1230       C  0.32241514  0.35192255  0.43366405     0.09600
C1231       C  0.34481109  0.36636023  0.45778784     0.10000
C1232       C  0.33215793  0.36303578  0.48692287    -0.17300
C1233       C  0.29763978  0.34602922  0.49228935    -0.27700
C1234       C  0.27524835  0.33026081  0.46806906     0.18400
C1235       C  0.33407160  0.35855668  0.40233687     0.12300
C1236       C  0.38196853  0.38546194  0.45268712    -0.12000
H1237       H  0.34931480  0.37461159  0.50548210     0.12600
C1238       C  0.23795038  0.30946219  0.47251264    -0.22900
H1239       H  0.27118080  0.32252699  0.42018103     0.08200
C1240       C  0.33543961  0.33451156  0.38433045     0.04600
C1241       C  0.34547738  0.34204949  0.35431298    -0.20100
C1242       C  0.35402143  0.37309625  0.34182835    -0.12400
C1243       C  0.35267823  0.39725606  0.36038520     0.13300
C1244       C  0.34259751  0.38943936  0.39030413    -0.22800
C1245       C  0.32657028  0.30110107  0.39687357    -0.05900
H1246       H  0.34659167  0.32345670  0.34060569     0.14800
C1247       C  0.36177554  0.43140788  0.34945231    -0.16100
H1248       H  0.34114759  0.40751004  0.40455489     0.09100
H1249       H  0.22482495  0.29713762  0.45135445     0.07000
H1250       H  0.22814498  0.32538108  0.48018876     0.08200
H1251       H  0.23181637  0.28961755  0.48925221     0.07200
H1252       H  0.38917391  0.40741948  0.43827151     0.02100
H1253       H  0.38948520  0.36905774  0.44152392     0.02600
H1254       H  0.39592214  0.39457078  0.47409327     0.06100
H1255       H  0.32933893  0.28530052  0.37980503     0.05100
H1256       H  0.30028257  0.28758097  0.40473244    -0.00700
H1257       H  0.34320053  0.30469823  0.41601063     0.00800
H1258       H  0.34481903  0.42906870  0.33103933     0.04500
H1259       H  0.38809799  0.44525121  0.34166730     0.06400
H1260       H  0.35943230  0.44661255  0.36744159     0.07300
C1261       C  0.61292201  0.53857969  0.34347803    -0.22300
C1262       C  0.58535207  0.51755555  0.36143125     0.09600
C1263       C  0.58893830  0.51821280  0.39284870     0.10000
C1264       C  0.61939148  0.54214998  0.40576519    -0.17300
C1265       C  0.64640677  0.56461242  0.38784227    -0.27700
C1266       C  0.64351661  0.56209587  0.35626674     0.18400
C1267       C  0.55272897  0.49670572  0.34658134     0.12300
C1268       C  0.56062465  0.49398522  0.41262030    -0.12000
H1269       H  0.62176027  0.54421604  0.42998723     0.12600
C1270       C  0.67152026  0.58483428  0.33544182    -0.22900
H1271       H  0.61013620  0.53754502  0.31926435     0.08200
C1272       C  0.53024031  0.50810015  0.34325936     0.04600
C1273       C  0.50152173  0.48955029  0.32570744    -0.20100
C1274       C  0.49544907  0.46054204  0.31063619    -0.12400
C1275       C  0.51744452  0.44855114  0.31493350     0.13300
C1276       C  0.54580221  0.46681591  0.33293982    -0.22800
C1277       C  0.53737395  0.54064450  0.35699495    -0.05900
H1278       H  0.48467692  0.49867301  0.32244563     0.14800
C1279       C  0.51101017  0.41631864  0.30102601    -0.16100
H1280       H  0.56320607  0.45830993  0.33571165     0.09100
H1281       H  0.66365995  0.59921114  0.32161105     0.07000
H1282       H  0.67742441  0.56963354  0.32030499     0.08200
H1283       H  0.69471669  0.60271949  0.34739221     0.07200
H1284       H  0.55336587  0.46809852  0.40638805     0.02100
H1285       H  0.53874882  0.49692117  0.40988784     0.02600
H1286       H  0.56775898  0.49786429  0.43667949     0.06100
H1287       H  0.51750327  0.54610597  0.35175436     0.05100
H1288       H  0.56133541  0.56138009  0.34814500    -0.00700
H1289       H  0.53906590  0.53979136  0.38173040     0.00800
H1290       H  0.51209344  0.41817023  0.27621959     0.04500
H1291       H  0.48614987  0.39561748  0.30820183     0.06400
H1292       H  0.52987033  0.41007136  0.30806172     0.07300
C1293       C  0.47193039  0.54392732  0.17312498    -0.22300
C1294       C  0.49764838  0.54787827  0.15426464     0.09600
C1295       C  0.50473582  0.52203743  0.15206590     0.10000
C1296       C  0.48640859  0.49314414  0.16956628    -0.17300
C1297       C  0.46165191  0.48977750  0.18979467    -0.27700
C1298       C  0.45346907  0.51516916  0.19054364     0.18400
C1299       C  0.51963057  0.58106810  0.14054863     0.12300
C1300       C  0.53285705  0.52571702  0.13258957    -0.12000
H1301       H  0.49278609  0.47396635  0.16865406     0.12600
C1302       C  0.42548848  0.51334081  0.20902624    -0.22900
H1303       H  0.46660739  0.56384789  0.17468639     0.08200
C1304       C  0.51634149  0.58834224  0.11050533     0.04600
C1305       C  0.53988267  0.61969740  0.09855754    -0.20100
C1306       C  0.56591425  0.64397930  0.11634070    -0.12400
C1307       C  0.56678608  0.63770460  0.14724654     0.13300
C1308       C  0.54408931  0.60615284  0.15875085    -0.22800
C1309       C  0.48811837  0.56315250  0.09122297    -0.05900
H1310       H  0.53892024  0.62463348  0.07495795     0.14800
C1311       C  0.59128370  0.66379625  0.16875887    -0.16100
H1312       H  0.54561311  0.60096993  0.18218830     0.09100
H1313       H  0.40943609  0.51840597  0.19446381     0.07000
H1314       H  0.43598797  0.53248936  0.22707225     0.08200
H1315       H  0.40887605  0.48870127  0.21909456     0.07200
H1316       H  0.55672899  0.54781939  0.13990473     0.02100
H1317       H  0.52830347  0.52892793  0.10882505     0.02600
H1318       H  0.53547838  0.50348944  0.13393271     0.06100
H1319       H  0.48905258  0.57300533  0.06840934     0.05100
H1320       H  0.46395833  0.55672868  0.10170389    -0.00700
H1321       H  0.48920119  0.54014600  0.08887423     0.00800
H1322       H  0.57745740  0.66658482  0.18776587     0.04500
H1323       H  0.60641662  0.68874570  0.15839028     0.06400
H1324       H  0.60829403  0.65595530  0.17765833     0.07300
C1325       C  0.90703616  0.36937534  0.34833064    -0.22300
C1326       C  0.92547461  0.40009031  0.36320279     0.09600
C1327       C  0.93353197  0.40095401  0.39369647     0.10000
C1328       C  0.92504042  0.37110405  0.40808836    -0.17300
C1329       C  0.90857134  0.34044449  0.39275039    -0.27700
C1330       C  0.89842837  0.33937433  0.36274777     0.18400
C1331       C  0.93770616  0.43113879  0.34596547     0.12300
C1332       C  0.95190044  0.43344178  0.41071398    -0.12000
H1333       H  0.93266690  0.37184285  0.43123277     0.12600
C1334       C  0.88048567  0.30710051  0.34537846    -0.22900
H1335       H  0.90060386  0.36906878  0.32486011     0.08200
C1336       C  0.96903148  0.44669689  0.33153693     0.04600
C1337       C  0.97899593  0.47527047  0.31423534    -0.20100
C1338       C  0.95818431  0.48846084  0.31067574    -0.12400
C1339       C  0.92711029  0.47324696  0.32623095     0.13300
C1340       C  0.91743234  0.44479516  0.34363319    -0.22800
C1341       C  0.99161123  0.43270491  0.33393546    -0.05900
H1342       H  0.00278431  0.48667865  0.30259956     0.14800
C1343       C  0.90392978  0.48666370  0.32506855    -0.16100
H1344       H  0.89355814  0.43270475  0.35523608     0.09100
H1345       H  0.89594496  0.29540232  0.34442388     0.07000
H1346       H  0.87522523  0.31105234  0.32198824     0.08200
H1347       H  0.85631059  0.28983663  0.35640767     0.07200
H1348       H  0.93706152  0.44580599  0.41060236     0.02100
H1349       H  0.97648897  0.45018285  0.40009837     0.02600
H1350       H  0.95624677  0.42958970  0.43443072     0.06100
H1351       H  0.01516369  0.44782821  0.32115562     0.05100
H1352       H  0.97879721  0.40688348  0.32487011    -0.00700
H1353       H  0.99815022  0.43234294  0.35775675     0.00800
H1354       H  0.89368399  0.48385044  0.30214509     0.04500
H1355       H  0.91748094  0.51329030  0.33191093     0.06400
H1356       H  0.88232165  0.47303184  0.34048183     0.07300
C1357       C  0.06526376  0.26059468  0.44539317    -0.22300
C1358       C  0.06172006  0.24987070  0.47513870     0.09600
C1359       C  0.02964926  0.23218816  0.48821953     0.10000
C1360       C  0.00196412  0.22745315  0.47179891    -0.17300
C1361       C  0.00591026  0.24073438  0.44289419    -0.27700
C1362       C  0.03777482  0.25634584  0.42906611     0.18400
C1363       C  0.09225400  0.26136773  0.49324527     0.12300
C1364       C  0.02489894  0.21940253  0.51985420    -0.12000
H1365       H  0.97757322  0.21533489  0.48230612     0.12600
C1366       C  0.04304138  0.26874200  0.39718881    -0.22900
H1367       H  0.08996671  0.27384949  0.43544311     0.08200
C1368       C  0.10995847  0.24450583  0.49334175     0.04600
C1369       C  0.13895147  0.25709288  0.51087001    -0.20100
C1370       C  0.15092151  0.28650028  0.52796245    -0.12400
C1371       C  0.13305132  0.30349061  0.52746706     0.13300
C1372       C  0.10401557  0.29060894  0.51013628    -0.22800
C1373       C  0.09812395  0.21324952  0.47505901    -0.05900
H1374       H  0.15244067  0.24398868  0.51108405     0.14800
C1375       C  0.14355151  0.33462231  0.54572066    -0.16100
H1376       H  0.09022432  0.30341615  0.50972720     0.09100
H1377       H  0.02573561  0.24816568  0.38203684     0.07000
H1378       H  0.06890950  0.27782661  0.38939005     0.08200
H1379       H  0.03872556  0.28983111  0.39530153     0.07200
H1380       H  0.03894680  0.24053285  0.53565345     0.02100
H1381       H  0.03415356  0.20190439  0.52170995     0.02600
H1382       H  0.99822308  0.20595637  0.52662369     0.06100
H1383       H  0.11470141  0.20298428  0.47774161     0.05100
H1384       H  0.09768265  0.21875386  0.45093927    -0.00700
H1385       H  0.07260616  0.19394619  0.48227315     0.00800
H1386       H  0.16804437  0.35522452  0.53770219     0.04500
H1387       H  0.14514379  0.32971893  0.56980320     0.06400
H1388       H  0.12549997  0.34319822  0.54374619     0.07300
C1389       C  0.92437572  0.30179997  0.56135897    -0.22300
C1390       C  0.95600953  0.32919718  0.56760877     0.09600
C1391       C  0.98031339  0.34310289  0.54478424     0.10000
C1392       C  0.97225255  0.32919477  0.51591366    -0.17300
C1393       C  0.94035584  0.30198449  0.50941471    -0.27700
C1394       C  0.91609426  0.28798958  0.53251361     0.18400
C1395       C  0.96303535  0.34227885  0.59854883     0.12300
C1396       C  0.01444844  0.37285208  0.55081474    -0.12000
H1397       H  0.99076094  0.34000476  0.49818268     0.12600
C1398       C  0.88190929  0.25783846  0.52737384    -0.22900
H1399       H  0.90608469  0.29114611  0.57930062     0.08200
C1400       C  0.95039655  0.36175496  0.60985704     0.04600
C1401       C  0.95543266  0.37130473  0.64008935    -0.20100
C1402       C  0.97288100  0.36188519  0.65930256    -0.12400
C1403       C  0.98661258  0.34330666  0.64745103     0.13300
C1404       C  0.98118056  0.33353352  0.61723819    -0.22800
C1405       C  0.93182385  0.37261087  0.58995062    -0.05900
H1406       H  0.94529508  0.38596416  0.64883869     0.14800
C1407       C  0.00788992  0.33455420  0.66592618    -0.16100
H1408       H  0.99099090  0.31872009  0.60805275     0.09100
H1409       H  0.86776577  0.26373297  0.51121230     0.07000
H1410       H  0.86706613  0.24940777  0.54842654     0.08200
H1411       H  0.88430134  0.23688077  0.51874258     0.07200
H1412       H  0.02729554  0.36653997  0.56806079     0.02100
H1413       H  0.01211883  0.39402595  0.55897871     0.02600
H1414       H  0.03021269  0.38098647  0.53028814     0.06100
H1415       H  0.92427339  0.38840072  0.60225800     0.05100
H1416       H  0.90892727  0.35046027  0.58113371    -0.00700
H1417       H  0.94801584  0.38730652  0.57087772     0.00800
H1418       H  0.01769469  0.32145286  0.65236766     0.04500
H1419       H  0.99305217  0.31772597  0.68454804     0.06400
H1420       H  0.02963530  0.35765000  0.67492707     0.07300
C1421       C  0.70427384  0.12642577  0.32218619    -0.22300
C1422       C  0.73414083  0.14336422  0.30580053     0.09600
C1423       C  0.73356189  0.13940403  0.27441090     0.10000
C1424       C  0.70346391  0.11661574  0.26036861    -0.17300
C1425       C  0.67402709  0.09763911  0.27703333    -0.27700
C1426       C  0.67413204  0.10342590  0.30822763     0.18400
C1427       C  0.76598915  0.16139830  0.32246371     0.12300
C1428       C  0.76485436  0.15841067  0.25589278    -0.12000
H1429       H  0.70329802  0.11205156  0.23651123     0.12600
C1430       C  0.64379115  0.08419249  0.32789877    -0.22900
H1431       H  0.70487257  0.12957888  0.34629660     0.08200
C1432       C  0.77659882  0.19214350  0.33686661     0.04600
C1433       C  0.80524836  0.20626060  0.35486698    -0.20100
C1434       C  0.82380485  0.19058574  0.35831792    -0.12400
C1435       C  0.81375983  0.16032225  0.34300952     0.13300
C1436       C  0.78480978  0.14600803  0.32540998    -0.22800
C1437       C  0.75778942  0.21002976  0.33315206    -0.05900
H1438       H  0.81305904  0.22949628  0.36653100     0.14800
C1439       C  0.83235939  0.14214331  0.34635172    -0.16100
H1440       H  0.77629573  0.12225501  0.31441039     0.09100
H1441       H  0.63815492  0.10185107  0.33937872     0.07000
H1442       H  0.64881285  0.07031716  0.34512503     0.08200
H1443       H  0.62126894  0.06597039  0.31538372     0.07200
H1444       H  0.78341540  0.15169455  0.26267427     0.02100
H1445       H  0.77564290  0.18560739  0.25923401     0.02600
H1446       H  0.75981066  0.15282123  0.23159368     0.06100
H1447       H  0.76993807  0.23419091  0.34542246     0.05100
H1448       H  0.73201568  0.19444150  0.34192185    -0.00700
H1449       H  0.75678020  0.21513565  0.30901299     0.00800
H1450       H  0.82007995  0.11811828  0.33386339     0.04500
H1451       H  0.83341605  0.13667551  0.37038278     0.06400
H1452       H  0.85805389  0.15760757  0.33739694     0.07300
C1453       C  0.84294304  0.10339215  0.49568709    -0.22300
C1454       C  0.81434633  0.09826226  0.51069529     0.09600
C1455       C  0.80639243  0.12352927  0.51056578     0.10000
C1456       C  0.82602788  0.15250955  0.49365794    -0.17300
C1457       C  0.85329087  0.15667617  0.47666423    -0.27700
C1458       C  0.86268970  0.13236899  0.47877218     0.18400
C1459       C  0.79104474  0.06497249  0.52358232     0.12300
C1460       C  0.77654409  0.11934712  0.52752042    -0.12000
H1461       H  0.81910022  0.17132850  0.49263137     0.12600
C1462       C  0.89369639  0.13692663  0.46372111    -0.22900
H1463       H  0.84914289  0.08402670  0.49636974     0.08200
C1464       C  0.76566328  0.03974910  0.50577143     0.04600
C1465       C  0.74196318  0.00962402  0.51909652    -0.20100
C1466       C  0.74273946  0.00404497  0.54992443    -0.12400
C1467       C  0.76886132  0.02908623  0.56769459     0.13300
C1468       C  0.79291813  0.05912034  0.55409650    -0.22800
C1469       C  0.76296159  0.04506636  0.47284186    -0.05900
H1470       H  0.72189182  0.99064655  0.50552163     0.14800
C1471       C  0.77125936  0.02633973  0.60116727    -0.16100
H1472       H  0.81243844  0.07870366  0.56765628     0.09100
H1473       H  0.89110401  0.13635458  0.43899289     0.07000
H1474       H  0.89846846  0.11678092  0.46982225     0.08200
H1475       H  0.91565507  0.16104389  0.47082605     0.07200
H1476       H  0.77931827  0.11604225  0.55175431     0.02100
H1477       H  0.75347170  0.09712211  0.51903076     0.02600
H1478       H  0.77378637  0.14140531  0.52502730     0.06100
H1479       H  0.74147299  0.02288862  0.46225356     0.05100
H1480       H  0.78602504  0.05004633  0.46104216    -0.00700
H1481       H  0.75954478  0.06664245  0.46978172     0.00800
H1482       H  0.79506164  0.02770785  0.60657980     0.04500
H1483       H  0.75063671  0.00310727  0.61085648     0.06400
H1484       H  0.77097415  0.04741303  0.61245078     0.07300
C1485       C  0.47920257  0.39690109  0.88027449    -0.22300
C1486       C  0.47611335  0.39531756  0.84899363     0.09600
C1487       C  0.45376791  0.36465030  0.83495445     0.10000
C1488       C  0.43340940  0.33660360  0.85273385    -0.17300
C1489       C  0.43448776  0.33894733  0.88413577    -0.27700
C1490       C  0.45846319  0.36911519  0.89806608     0.18400
C1491       C  0.49336153  0.42680475  0.83177859     0.12300
C1492       C  0.44999642  0.36211423  0.80135785    -0.12000
H1493       H  0.41460211  0.31363174  0.84214911     0.12600
C1494       C  0.46191804  0.37307820  0.93165595    -0.22900
H1495       H  0.49657872  0.42043970  0.89092857     0.08200
C1496       C  0.47923756  0.44702019  0.82922299     0.04600
C1497       C  0.49567931  0.47627923  0.81218760    -0.20100
C1498       C  0.52575175  0.48565228  0.79735804    -0.12400
C1499       C  0.54038248  0.46580572  0.80060591     0.13300
C1500       C  0.52387992  0.43651447  0.81778555    -0.22800
C1501       C  0.44650093  0.43738800  0.84411050    -0.05900
H1502       H  0.48454753  0.49152776  0.80982407     0.14800
C1503       C  0.57383981  0.47590855  0.78698747    -0.16100
H1504       H  0.53471732  0.42102454  0.82027539     0.09100
H1505       H  0.45622497  0.39229059  0.93912565     0.07000
H1506       H  0.48791329  0.38119723  0.93810229     0.08200
H1507       H  0.44513755  0.34955719  0.94373978     0.07200
H1508       H  0.47418662  0.36886040  0.79075799     0.02100
H1509       H  0.44206785  0.37937278  0.79332008     0.02600
H1510       H  0.43106156  0.33645899  0.79404570     0.06100
H1511       H  0.43879620  0.45575970  0.83954819     0.05100
H1512       H  0.44872091  0.43605139  0.86876339    -0.00700
H1513       H  0.42666497  0.41268799  0.83562710     0.00800
H1514       H  0.58221565  0.45844718  0.79323864     0.04500
H1515       H  0.59285145  0.50114978  0.79512676     0.06400
H1516       H  0.57248768  0.47593827  0.76216666     0.07300
C1517       C  0.30836693  0.26831132  0.77045369    -0.22300
C1518       C  0.29010217  0.28382047  0.76495085     0.09600
C1519       C  0.28093824  0.29719812  0.78900014     0.10000
C1520       C  0.28981143  0.29417929  0.81829019    -0.17300
C1521       C  0.30772481  0.27828397  0.82379164    -0.27700
C1522       C  0.31755399  0.26557969  0.79963861     0.18400
C1523       C  0.28107192  0.28583387  0.73370117     0.12300
C1524       C  0.26183233  0.31454175  0.78370326    -0.12000
H1525       H  0.28225045  0.30369273  0.83702797     0.12600
C1526       C  0.33763594  0.24904529  0.80385825    -0.22900
H1527       H  0.31551759  0.25829769  0.75180320     0.08200
C1528       C  0.30448935  0.30993820  0.71384432     0.04600
C1529       C  0.29532176  0.31003558  0.68402713    -0.20100
C1530       C  0.26316741  0.28683134  0.67375658    -0.12400
C1531       C  0.23968410  0.26251464  0.69369833     0.13300
C1532       C  0.24896998  0.26248607  0.72355186    -0.22800
C1533       C  0.33890204  0.33589143  0.72429065    -0.05900
H1534       H  0.31312242  0.32882597  0.66878359     0.14800
C1535       C  0.20523403  0.23553040  0.68420040    -0.16100
H1536       H  0.23126278  0.24381577  0.73891195     0.09100
H1537       H  0.36087841  0.26229563  0.79033800     0.07000
H1538       H  0.32290167  0.22269135  0.79620967     0.08200
H1539       H  0.34502670  0.24943237  0.82746998     0.07200
H1540       H  0.23743612  0.29696145  0.77319993     0.02100
H1541       H  0.27632319  0.33614985  0.76859006     0.02600
H1542       H  0.25701871  0.32386929  0.80496619     0.06100
H1543       H  0.35387046  0.35330067  0.70599209     0.05100
H1544       H  0.35235554  0.32363722  0.73232306    -0.00700
H1545       H  0.33698559  0.35072668  0.74287620     0.00800
H1546       H  0.20169939  0.21075670  0.68952585     0.04500
H1547       H  0.20073671  0.23557791  0.65986031     0.06400
H1548       H  0.18628550  0.23846794  0.69664925     0.07300
C1549       C  0.37915449  0.31365042  0.11761395    -0.22300
C1550       C  0.37952456  0.33704562  0.09790458     0.09600
C1551       C  0.38339674  0.36706544  0.10906884     0.10000
C1552       C  0.38618896  0.37280191  0.14002905    -0.17300
C1553       C  0.38543893  0.34927259  0.15977681    -0.27700
C1554       C  0.38218779  0.31945672  0.14858621     0.18400
C1555       C  0.37483947  0.32909603  0.06568272     0.12300
C1556       C  0.38514885  0.39319045  0.08830943    -0.12000
H1557       H  0.38957519  0.39594117  0.14884174     0.12600
C1558       C  0.38124560  0.29316350  0.16859881    -0.22900
H1559       H  0.37618914  0.29065764  0.10877393     0.08200
C1560       C  0.40116393  0.33267509  0.04752956     0.04600
C1561       C  0.39501723  0.32349120  0.01728739    -0.20100
C1562       C  0.36313889  0.31075621  0.00481680    -0.12400
C1563       C  0.33686135  0.30783887  0.02310083     0.13300
C1564       C  0.34319157  0.31708220  0.05338156    -0.22800
C1565       C  0.43563308  0.34613651  0.06010474    -0.05900
H1566       H  0.41528083  0.32602662  0.00332248     0.14800
C1567       C  0.30188759  0.29389357  0.01143718    -0.16100
H1568       H  0.32320110  0.31449660  0.06778538     0.09100
H1569       H  0.40266126  0.29001723  0.16322081     0.07000
H1570       H  0.35770985  0.26906635  0.16477528     0.08200
H1571       H  0.38233043  0.29936126  0.19273632     0.07200
H1572       H  0.36161490  0.38279952  0.07541553     0.02100
H1573       H  0.40633833  0.40134586  0.07246978     0.02600
H1574       H  0.38887569  0.41546188  0.10081215     0.06100
H1575       H  0.45344347  0.34775095  0.04265714     0.05100
H1576       H  0.43486506  0.32957113  0.07819319    -0.00700
H1577       H  0.44513282  0.37153188  0.06939517     0.00800
H1578       H  0.28448179  0.29208892  0.02939394     0.04500
H1579       H  0.29221928  0.26843625  0.00221417     0.06400
H1580       H  0.30171146  0.31037096  0.99374250     0.07300
C1581       C  0.95351262  0.19474320  0.01194258    -0.22300
C1582       C  0.92182204  0.18213120  0.02472665     0.09600
C1583       C  0.91901773  0.19080620  0.05447268     0.10000
C1584       C  0.94791111  0.21378746  0.07007586    -0.17300
C1585       C  0.97962016  0.22821296  0.05668451    -0.27700
C1586       C  0.98250897  0.21779711  0.02753287     0.18400
C1587       C  0.89190785  0.16335669  0.00549605     0.12300
C1588       C  0.88540839  0.17670386  0.06929557    -0.12000
H1589       H  0.94562444  0.22162556  0.09245193     0.12600
C1590       C  0.01569668  0.23288452  0.01186982    -0.22900
H1591       H  0.95539302  0.18794283  0.98901960     0.08200
C1592       C  0.87917975  0.18020170  0.98940878     0.04600
C1593       C  0.85037378  0.16184048  0.97201287    -0.20100
C1594       C  0.83403294  0.12687702  0.96975331    -0.12400
C1595       C  0.84713151  0.11002750  0.98584484     0.13300
C1596       C  0.87582167  0.12855958  0.00362415    -0.22800
C1597       C  0.89616717  0.21769336  0.99048595    -0.05900
H1598       H  0.84091840  0.17508356  0.95966961     0.14800
C1599       C  0.83082680  0.07263038  0.98514998    -0.16100
H1600       H  0.88578107  0.11590746  0.01618147     0.09100
H1601       H  0.02667582  0.26022278  0.00996690     0.07000
H1602       H  0.01330262  0.22258206  0.98889330     0.08200
H1603       H  0.03274289  0.22767016  0.02471505     0.07200
H1604       H  0.87273248  0.14909050  0.07003460     0.02100
H1605       H  0.86976347  0.18380587  0.05647258     0.02600
H1606       H  0.88761957  0.18605804  0.09263199     0.06100
H1607       H  0.88306623  0.22693668  0.97650156     0.05100
H1608       H  0.92211949  0.22904960  0.98200035    -0.00700
H1609       H  0.89671333  0.22614083  0.01390152     0.00800
H1610       H  0.83189725  0.06402827  0.96215517     0.04500
H1611       H  0.80455422  0.06100809  0.99259520     0.06400
H1612       H  0.84345408  0.06384111  0.00030161     0.07300
C1613       C  0.02394976  0.36118823  0.95013496    -0.22300
C1614       C  0.04903504  0.36546286  0.93013536     0.09600
C1615       C  0.07640777  0.36371519  0.94071098     0.10000
C1616       C  0.07830503  0.35812692  0.97129684    -0.17300
C1617       C  0.05346790  0.35428022  0.99152470    -0.27700
C1618       C  0.02592125  0.35596859  0.98082445     0.18400
C1619       C  0.04721638  0.37389327  0.89856669     0.12300
C1620       C  0.10361413  0.36789248  0.91970863    -0.12000
H1621       H  0.09937798  0.35684051  0.97953120     0.12600
C1622       C  0.99914132  0.35427473  0.00103714    -0.22900
H1623       H  0.00318961  0.36300510  0.94185457     0.08200
C1624       C  0.02889973  0.34908842  0.87689906     0.04600
C1625       C  0.02749504  0.35861138  0.84741014    -0.20100
C1626       C  0.04401114  0.39240848  0.83915065    -0.12400
C1627       C  0.06367934  0.41716886  0.86075444     0.13300
C1628       C  0.06441087  0.40752673  0.89030050    -0.22800
C1629       C  0.01058555  0.31268129  0.88503779    -0.05900
H1630       H  0.01248312  0.33958471  0.83097902     0.14800
C1631       C  0.08516290  0.45377396  0.85351409    -0.16100
H1632       H  0.07897588  0.42641860  0.90702207     0.09100
H1633       H  0.97468124  0.33216396  0.99495769     0.07000
H1634       H  0.99778616  0.37708165  0.99800083     0.08200
H1635       H  0.00363626  0.35284283  0.02515234     0.07200
H1636       H  0.11581223  0.39293641  0.90922075     0.02100
H1637       H  0.09284360  0.34851678  0.90187558     0.02600
H1638       H  0.12303966  0.36545900  0.93160008     0.06100
H1639       H  0.99755369  0.29649888  0.86539320     0.05100
H1640       H  0.99168748  0.30765324  0.90262056    -0.00700
H1641       H  0.02849185  0.30587239  0.89366007     0.00800
H1642       H  0.07516539  0.46786277  0.86512338     0.04500
H1643       H  0.08718843  0.45911256  0.82920864     0.06400
H1644       H  0.11097171  0.46317560  0.86148659     0.07300
C1645       C  0.01620745  0.46718773  0.17240301    -0.22300
C1646       C  0.04892016  0.48541723  0.16143871     0.09600
C1647       C  0.06799802  0.52002922  0.16670411     0.10000
C1648       C  0.05417931  0.53552747  0.18353697    -0.17300
C1649       C  0.02145499  0.51734874  0.19523001    -0.27700
C1650       C  0.00211887  0.48250301  0.18914422     0.18400
C1651       C  0.06231270  0.46743524  0.14433364     0.12300
C1652       C  0.10303853  0.54048702  0.15474651    -0.12000
H1653       H  0.06930016  0.56215100  0.18770854     0.12600
C1654       C  0.96691244  0.46083934  0.20050456    -0.22900
H1655       H  0.00165921  0.44056203  0.16796682     0.08200
C1656       C  0.07539830  0.45000198  0.15900685     0.04600
C1657       C  0.08377988  0.42982173  0.14213586    -0.20100
C1658       C  0.07878415  0.42628371  0.11098756    -0.12400
C1659       C  0.06750290  0.44531245  0.09613946     0.13300
C1660       C  0.05954659  0.46577629  0.11300944    -0.22800
C1661       C  0.07955184  0.45194213  0.19255730    -0.05900
H1662       H  0.09219232  0.41513042  0.15351591     0.14800
C1663       C  0.06375094  0.44407353  0.06250421    -0.16100
H1664       H  0.04992789  0.47955929  0.10187686     0.09100
H1665       H  0.95610840  0.43430953  0.19387009     0.07000
H1666       H  0.95071113  0.46934927  0.19095605     0.08200
H1667       H  0.96651701  0.46182196  0.22538187     0.07200
H1668       H  0.10278818  0.53866837  0.12990049     0.02100
H1669       H  0.11862954  0.53108199  0.16396635     0.02600
H1670       H  0.11470387  0.56722305  0.16098611     0.06100
H1671       H  0.09017252  0.43690316  0.20047819     0.05100
H1672       H  0.05498821  0.44239390  0.20364037    -0.00700
H1673       H  0.09662634  0.47825162  0.19946933     0.00800
H1674       H  0.08777733  0.45055256  0.05168932     0.04500
H1675       H  0.04403967  0.41883514  0.05510199     0.06400
H1676       H  0.05665831  0.46201307  0.05455897     0.07300
C1677       C  0.96854228  0.26052891  0.27513726    -0.22300
C1678       C  0.98991971  0.29390250  0.26732401     0.09600
C1679       C  0.99927020  0.31911317  0.28908210     0.10000
C1680       C  0.98741825  0.31014869  0.31856067    -0.17300
C1681       C  0.96656435  0.27651464  0.32681662    -0.27700
C1682       C  0.95669268  0.25135750  0.30451393     0.18400
C1683       C  0.00259829  0.30129976  0.23620088     0.12300
C1684       C  0.02209577  0.35529737  0.28124460    -0.12000
H1685       H  0.99495369  0.32962020  0.33538474     0.12600
C1686       C  0.93303434  0.21489715  0.31095718    -0.22900
H1687       H  0.96129298  0.24140623  0.25796156     0.08200
C1688       C  0.02788170  0.29547988  0.22655559     0.04600
C1689       C  0.03618677  0.29845113  0.19606679    -0.20100
C1690       C  0.02021666  0.30769545  0.17503077    -0.12400
C1691       C  0.99595991  0.31515523  0.18500404     0.13300
C1692       C  0.98720459  0.31148815  0.21553667    -0.22800
C1693       C  0.04610493  0.28616759  0.24847714    -0.05900
H1694       H  0.05535178  0.29358208  0.18860753     0.14800
C1695       C  0.97829087  0.32570784  0.16363429    -0.16100
H1696       H  0.96783126  0.31587987  0.22327184     0.09100
H1697       H  0.94448226  0.20565217  0.32695165     0.07000
H1698       H  0.92680901  0.19933805  0.29035403     0.08200
H1699       H  0.90937719  0.21128822  0.32026106     0.07200
H1700       H  0.01044669  0.36264137  0.26365497     0.02100
H1701       H  0.04622584  0.35926830  0.27276313     0.02600
H1702       H  0.02722548  0.37182927  0.30100469     0.06100
H1703       H  0.06570949  0.28326145  0.23725693     0.05100
H1704       H  0.02836900  0.26219346  0.25949097    -0.00700
H1705       H  0.05826870  0.30597158  0.26582903     0.00800
H1706       H  0.95892294  0.32872712  0.17519991     0.04500
H1707       H  0.96586776  0.30659679  0.14575610     0.06400
H1708       H  0.99642506  0.35008805  0.15344244     0.07300
C1709       C  0.28202161  0.40596308  0.18148182    -0.22300
C1710       C  0.25173282  0.38863035  0.19726285     0.09600
C1711       C  0.25181071  0.37910550  0.22721099     0.10000
C1712       C  0.28188318  0.38562841  0.24015385    -0.17300
C1713       C  0.31202922  0.40165767  0.22400018    -0.27700
C1714       C  0.31222267  0.41269437  0.19450306     0.18400
C1715       C  0.22003326  0.37788967  0.18105077     0.12300
C1716       C  0.22012659  0.36175721  0.24542126    -0.12000
H1717       H  0.28171998  0.37725442  0.26281609     0.12600
C1718       C  0.34370669  0.42967283  0.17605765    -0.22900
H1719       H  0.28178273  0.41303739  0.15841951     0.08200
C1720       C  0.21035378  0.40062604  0.17238465     0.04600
C1721       C  0.18136204  0.38925576  0.15507880    -0.20100
C1722       C  0.16162720  0.35558831  0.14651645    -0.12400
C1723       C  0.17113734  0.33271780  0.15569286     0.13300
C1724       C  0.20009053  0.34421355  0.17291393    -0.22800
C1725       C  0.23045800  0.43675869  0.18156489    -0.05900
H1726       H  0.17418444  0.40675924  0.14796324     0.14800
C1727       C  0.15273302  0.29644878  0.14653174    -0.16100
H1728       H  0.20778595  0.32687633  0.17930125     0.09100
H1729       H  0.36211765  0.45351640  0.18689242     0.07000
H1730       H  0.33910343  0.43537897  0.15306806     0.08200
H1731       H  0.35430491  0.41331549  0.17409698     0.07200
H1732       H  0.20210638  0.33743044  0.23500784     0.02100
H1733       H  0.20885953  0.37759554  0.24655988     0.02600
H1734       H  0.22480318  0.35691658  0.26870678     0.06100
H1735       H  0.21896202  0.45097092  0.17357188     0.05100
H1736       H  0.25597041  0.44849026  0.17198652    -0.00700
H1737       H  0.23208661  0.43868340  0.20640481     0.00800
H1738       H  0.17006983  0.29082973  0.13440588     0.04500
H1739       H  0.13137061  0.28931626  0.13149844     0.06400
H1740       H  0.14335216  0.28060865  0.16686859     0.07300
C1741       C  0.14580343  0.27605748  0.98541812    -0.15100
C1742       C  0.17320174  0.27623397  0.99817888     0.09600
C1743       C  0.18239789  0.28746848  0.02800822     0.10000
C1744       C  0.16301820  0.29685000  0.04476432    -0.17300
C1745       C  0.13583939  0.29712795  0.03190480    -0.27700
C1746       C  0.12720821  0.28672989  0.00173055     0.18400
C1747       C  0.19457047  0.26903628  0.97870826     0.12300
C1748       C  0.21364306  0.29130798  0.04159098    -0.12000
H1749       H  0.16992817  0.30534412  0.06777755     0.12600
C1750       C  0.09856402  0.28629099  0.98604370    -0.22900
H1751       H  0.13936181  0.26826155  0.96218826     0.08200
C1752       C  0.19357923  0.23840586  0.97928752     0.04600
C1753       C  0.21665047  0.23456289  0.96194892    -0.20100
C1754       C  0.24030877  0.26045176  0.94353455    -0.12400
C1755       C  0.23956821  0.29052426  0.94180109     0.13300
C1756       C  0.21687752  0.29425458  0.95953384    -0.22800
C1757       C  0.16786322  0.20967814  0.99775502    -0.05900
H1758       H  0.21636843  0.21132782  0.96310702     0.14800
C1759       C  0.26248627  0.31934095  0.92173484    -0.16100
H1760       H  0.21688592  0.31739667  0.95892510     0.09100
H1761       H  0.08055016  0.26054668  0.97826859     0.07000
H1762       H  0.10805760  0.30299585  0.96625817     0.08200
H1763       H  0.08496486  0.29460168  0.00054820     0.07200
H1764       H  0.23564033  0.30899502  0.02798847     0.02100
H1765       H  0.21221462  0.26694303  0.04221408     0.02600
H1766       H  0.21754490  0.30116793  0.06488653     0.06100
H1767       H  0.17024025  0.18735467  0.99537491     0.05100
H1768       H  0.14251399  0.20283100  0.99026971    -0.00700
H1769       H  0.17059089  0.21662001  0.02182440     0.00800
H1770       H  0.25940695  0.31076825  0.89805072     0.04500
H1771       H  0.28876940  0.33024794  0.92895162     0.06400
H1772       H  0.25696161  0.33973766  0.92264860     0.07300
C1773       C  0.24527498  0.85826358  0.72786905    -0.22300
C1774       C  0.24737606  0.85228534  0.69736878     0.09600
C1775       C  0.27901766  0.86604988  0.68357430     0.10000
C1776       C  0.30788545  0.88647203  0.70045942    -0.17300
C1777       C  0.30569767  0.89439255  0.73044897    -0.27700
C1778       C  0.27402363  0.87901590  0.74465938     0.18400
C1779       C  0.21617245  0.83387375  0.67973196     0.12300
C1780       C  0.28224518  0.86101969  0.65058840    -0.12000
H1781       H  0.33205319  0.89842949  0.68954582     0.12600
C1782       C  0.26961782  0.88421237  0.77739145    -0.22900
H1783       H  0.22095718  0.84738312  0.73844432     0.08200
C1784       C  0.20170580  0.79974452  0.67268396     0.04600
C1785       C  0.17394936  0.78446866  0.65360880    -0.20100
C1786       C  0.15935445  0.80198222  0.64263772    -0.12400
C1787       C  0.17275797  0.83568158  0.65103229     0.13300
C1788       C  0.20124005  0.85132678  0.66930844    -0.22800
C1789       C  0.21515189  0.77941803  0.68574729    -0.05900
H1790       H  0.16335794  0.75845283  0.64728037     0.14800
C1791       C  0.15785791  0.85546431  0.63980055    -0.16100
H1792       H  0.21230210  0.87750316  0.67515388     0.09100
H1793       H  0.25546484  0.85963690  0.78868801     0.07000
H1794       H  0.25540122  0.89715017  0.77957175     0.08200
H1795       H  0.29362349  0.89890676  0.78943155     0.07200
H1796       H  0.26934974  0.87104965  0.63735874     0.02100
H1797       H  0.27093642  0.83411912  0.64544166     0.02600
H1798       H  0.30873975  0.87398503  0.64330565     0.06100
H1799       H  0.20055143  0.75298337  0.67824098     0.05100
H1800       H  0.21383280  0.77990071  0.71059996    -0.00700
H1801       H  0.24145820  0.78971714  0.67887395     0.00800
H1802       H  0.17199769  0.88170638  0.64787584     0.04500
H1803       H  0.13176744  0.84408232  0.64790362     0.06400
H1804       H  0.15813568  0.85571733  0.61489380     0.07300
C1805       C  0.36590836  0.99727282  0.61124361    -0.22300
C1806       C  0.36661837  0.02629731  0.60249089     0.09600
C1807       C  0.37282629  0.05118555  0.62387024     0.10000
C1808       C  0.37923882  0.04683884  0.65361606    -0.17300
C1809       C  0.37862389  0.01783009  0.66238894    -0.27700
C1810       C  0.37180918  0.99263860  0.64104458     0.18400
C1811       C  0.36123421  0.03022693  0.57064993     0.12300
C1812       C  0.37198854  0.08187691  0.61543034    -0.12000
H1813       H  0.38413601  0.06584209  0.67023658     0.12600
C1814       C  0.37146229  0.96109885  0.64862631    -0.22900
H1815       H  0.36107725  0.97828911  0.59461876     0.08200
C1816       C  0.38832454  0.04809467  0.55095885     0.04600
C1817       C  0.38203963  0.05183660  0.52104541    -0.20100
C1818       C  0.34927828  0.03768228  0.51021250    -0.12400
C1819       C  0.32211688  0.01885020  0.52993676     0.13300
C1820       C  0.32853104  0.01543862  0.56000307    -0.22800
C1821       C  0.42381375  0.06287091  0.56142043    -0.05900
H1822       H  0.40293247  0.06591841  0.50599658     0.14800
C1823       C  0.28646232  0.00351008  0.51998222    -0.16100
H1824       H  0.30797899  0.00150421  0.57544078     0.09100
H1825       H  0.39015875  0.95932698  0.63457811     0.07000
H1826       H  0.34638274  0.93920875  0.64385145     0.08200
H1827       H  0.37751729  0.95988792  0.67238759     0.07200
H1828       H  0.34700508  0.07443369  0.60644625     0.02100
H1829       H  0.39109471  0.09625794  0.59807998     0.02600
H1830       H  0.37695402  0.09854604  0.63504667     0.06100
H1831       H  0.44197613  0.07578763  0.54296407     0.05100
H1832       H  0.42748499  0.04276936  0.56997648    -0.00700
H1833       H  0.42942222  0.08127883  0.57961715     0.00800
H1834       H  0.28067303  0.98445625  0.50233777     0.04500
H1835       H  0.28245330  0.02330417  0.51123096     0.06400
H1836       H  0.26867778  0.99096150  0.53876594     0.07300
C1837       C  0.39479966  0.13510311  0.78047054    -0.22300
C1838       C  0.39590639  0.13610431  0.81184950     0.09600
C1839       C  0.40716886  0.11752561  0.82734832     0.10000
C1840       C  0.41558636  0.09705757  0.81106867    -0.17300
C1841       C  0.41229087  0.09431466  0.77975913    -0.27700
C1842       C  0.40291803  0.11449061  0.76419849     0.18400
C1843       C  0.38279152  0.15473568  0.82807815     0.12300
C1844       C  0.40876578  0.11810595  0.86109735    -0.12000
H1845       H  0.42232461  0.08125644  0.82298609     0.12600
C1846       C  0.40080045  0.11445934  0.73047457    -0.22900
H1847       H  0.38654865  0.14974796  0.76862617     0.08200
C1848       C  0.40358422  0.18840615  0.83647352     0.04600
C1849       C  0.39009357  0.20423850  0.85318353    -0.20100
C1850       C  0.35617909  0.18732441  0.86127860    -0.12400
C1851       C  0.33518871  0.15375034  0.85218794     0.13300
C1852       C  0.34880412  0.13798460  0.83555802    -0.22800
C1853       C  0.43993061  0.20746322  0.82788267    -0.05900
H1854       H  0.40617801  0.22997348  0.86021563     0.14800
C1855       C  0.29885371  0.13323661  0.86073359    -0.16100
H1856       H  0.33291368  0.11207152  0.82897147     0.09100
H1857       H  0.41689084  0.14028954  0.72205234     0.07000
H1858       H  0.37465407  0.10513600  0.72363509     0.08200
H1859       H  0.40936724  0.09883875  0.71954231     0.07200
H1860       H  0.38356735  0.10906635  0.87062767     0.02100
H1861       H  0.42603252  0.14392675  0.86910421     0.02600
H1862       H  0.41780788  0.10193074  0.86965940     0.06100
H1863       H  0.45266616  0.23360947  0.83617947     0.05100
H1864       H  0.44237758  0.20800581  0.80307893    -0.00700
H1865       H  0.45276030  0.19526552  0.83753086     0.00800
H1866       H  0.28340039  0.12484627  0.84011085     0.04500
H1867       H  0.29033651  0.14688004  0.87496810     0.06400
H1868       H  0.29436315  0.11095640  0.87345152     0.07300
C1869       C  0.52795290  0.01435888  0.84707468    -0.22300
C1870       C  0.55143037  0.04869064  0.84807756     0.09600
C1871       C  0.54458052  0.07092509  0.83303603     0.10000
C1872       C  0.51518559  0.05821195  0.81612344    -0.17300
C1873       C  0.49212738  0.02373803  0.81418770    -0.27700
C1874       C  0.49826594  0.00157998  0.83053492     0.18400
C1875       C  0.58439334  0.06023862  0.86221500     0.12300
C1876       C  0.56830669  0.10806660  0.83480979    -0.12000
H1877       H  0.51037412  0.07526511  0.80400897     0.12600
C1878       C  0.47462262  0.96437211  0.82942165    -0.22900
H1879       H  0.53346935  0.99740168  0.85846650     0.08200
C1880       C  0.58834652  0.05971157  0.89357725     0.04600
C1881       C  0.61949356  0.06749132  0.90520542    -0.20100
C1882       C  0.64648801  0.07525068  0.88610108    -0.12400
C1883       C  0.64288708  0.07735190  0.85485851     0.13300
C1884       C  0.61192701  0.06977821  0.84335313    -0.22800
C1885       C  0.55957823  0.05023627  0.91464365    -0.05900
H1886       H  0.62214519  0.06535732  0.92910288     0.14800
C1887       C  0.67109539  0.08688799  0.83299211    -0.16100
H1888       H  0.60894595  0.07027362  0.81929169     0.09100
H1889       H  0.45018507  0.95799268  0.83921106     0.07000
H1890       H  0.48414104  0.95084714  0.84241918     0.08200
H1891       H  0.47117246  0.95545086  0.80583383     0.07200
H1892       H  0.59276334  0.11475816  0.82489224     0.02100
H1893       H  0.57188155  0.11623427  0.85863302     0.02600
H1894       H  0.55870468  0.12193550  0.82249205     0.06100
H1895       H  0.56707611  0.05162951  0.93845183     0.05100
H1896       H  0.53915155  0.02431244  0.91001576    -0.00700
H1897       H  0.55015389  0.06746651  0.91160029     0.00800
H1898       H  0.66449481  0.06575505  0.81743826     0.04500
H1899       H  0.69493241  0.09380986  0.84417031     0.06400
H1900       H  0.67538775  0.10878504  0.81975489     0.07300
C1901       C  0.49979829  0.96367263  0.65977152    -0.22300
C1902       C  0.48764996  0.92940320  0.66162666     0.09600
C1903       C  0.46044410  0.90949989  0.68063119     0.10000
C1904       C  0.44635167  0.92445033  0.69778650    -0.17300
C1905       C  0.45917596  0.95909494  0.69696549    -0.27700
C1906       C  0.48655677  0.97902992  0.67757463     0.18400
C1907       C  0.50655523  0.91596555  0.64630278     0.12300
C1908       C  0.44646185  0.87251216  0.68290181    -0.12000
H1909       H  0.42535562  0.90891898  0.71232097     0.12600
C1910       C  0.50431887  0.01659529  0.67615916    -0.22900
H1911       H  0.52115994  0.97893437  0.64547282     0.08200
C1912       C  0.50394732  0.90933622  0.61518216     0.04600
C1913       C  0.52611817  0.90139287  0.60129614    -0.20100
C1914       C  0.55089773  0.90026494  0.61795854    -0.12400
C1915       C  0.55146655  0.90412749  0.64954746     0.13300
C1916       C  0.52953949  0.91224966  0.66321450    -0.22800
C1917       C  0.47845707  0.91163306  0.59662738    -0.05900
H1918       H  0.52566054  0.89847734  0.57713976     0.14800
C1919       C  0.57529941  0.90042654  0.66948765    -0.16100
H1920       H  0.53109690  0.91676413  0.68720555     0.09100
H1921       H  0.50021540  0.02422740  0.65383248     0.07000
H1922       H  0.53150985  0.02722170  0.67923080     0.08200
H1923       H  0.49681389  0.02810086  0.69376415     0.07200
H1924       H  0.46585834  0.86771917  0.69136035     0.02100
H1925       H  0.43809187  0.86080411  0.66043992     0.02600
H1926       H  0.42480899  0.86044971  0.69845224     0.06100
H1927       H  0.47948971  0.90541257  0.57271783     0.05100
H1928       H  0.48297653  0.93734092  0.59775490    -0.00700
H1929       H  0.45307848  0.89390469  0.60535159     0.00800
H1930       H  0.59230253  0.92454200  0.68079931     0.04500
H1931       H  0.59045799  0.89221088  0.65712992     0.06400
H1932       H  0.56094362  0.88133744  0.68685525     0.07300
C1933       C  0.44395716  0.92382682  0.16313950    -0.22300
C1934       C  0.43800365  0.94836692  0.15257071     0.09600
C1935       C  0.46315743  0.98232780  0.15506563     0.10000
C1936       C  0.49314723  0.99107371  0.16960698    -0.17300
C1937       C  0.49831374  0.96660220  0.18199315    -0.27700
C1938       C  0.47397878  0.93247109  0.17748618     0.18400
C1939       C  0.40451627  0.93821170  0.14081495     0.12300
C1940       C  0.45789714  0.00932132  0.14316607    -0.12000
H1941       H  0.51172678  0.01718788  0.17295833     0.12600
C1942       C  0.47885688  0.90452608  0.18729734    -0.22900
H1943       H  0.42480082  0.89776613  0.16066137     0.08200
C1944       C  0.39538828  0.92769018  0.11087923     0.04600
C1945       C  0.36431495  0.92115459  0.10033868    -0.20100
C1946       C  0.34245010  0.92532453  0.11905172    -0.12400
C1947       C  0.35094981  0.93401955  0.14959809     0.13300
C1948       C  0.38186948  0.94023704  0.16005970    -0.22800
C1949       C  0.41887822  0.92440531  0.08992973    -0.05900
H1950       H  0.35781593  0.91440401  0.07700420     0.14800
C1951       C  0.32752719  0.93650734  0.17141469    -0.16100
H1952       H  0.38889356  0.94766120  0.18318860     0.09100
H1953       H  0.47501468  0.88798047  0.16785163     0.07000
H1954       H  0.46044234  0.88970892  0.20504283     0.08200
H1955       H  0.50428012  0.91348402  0.19579226     0.07200
H1956       H  0.43641332  0.00845420  0.15475168     0.02100
H1957       H  0.45281297  0.00563371  0.11872058     0.02600
H1958       H  0.48015547  0.03452521  0.14671811     0.06100
H1959       H  0.40806224  0.91627330  0.06716519     0.05100
H1960       H  0.42439373  0.90565698  0.09880272    -0.00700
H1961       H  0.44250449  0.94880559  0.08789370     0.00800
H1962       H  0.33714560  0.94075909  0.19473652     0.04500
H1963       H  0.30290164  0.91295273  0.17109317     0.06400
H1964       H  0.32438882  0.95772057  0.16557248     0.07300
C1965       C  0.31842315  0.00647213  0.27929586    -0.22300
C1966       C  0.28917212  0.00082386  0.26554239     0.09600
C1967       C  0.26530244  0.00401750  0.28210461     0.10000
C1968       C  0.27116687  0.01276112  0.31238392    -0.17300
C1969       C  0.30045801  0.01856102  0.32663249    -0.27700
C1970       C  0.32453293  0.01541462  0.30971068     0.18400
C1971       C  0.28311885  0.99047078  0.23390624     0.12300
C1972       C  0.23372969  0.99847843  0.26772735    -0.12000
H1973       H  0.25253557  0.01497414  0.32496714     0.12600
C1974       C  0.35682834  0.02178253  0.32302179    -0.22900
H1975       H  0.33641623  0.00376598  0.26614192     0.08200
C1976       C  0.29672311  0.01384032  0.21050549     0.04600
C1977       C  0.28670779  0.00306954  0.18099012    -0.20100
C1978       C  0.26342447  0.96943268  0.17447999    -0.12400
C1979       C  0.25107698  0.94576302  0.19817320     0.13300
C1980       C  0.26114232  0.95679032  0.22756456    -0.22800
C1981       C  0.32132574  0.05011739  0.21679652    -0.05900
H1982       H  0.29683665  0.02112916  0.16300125     0.14800
C1983       C  0.22785584  0.90880857  0.19308885    -0.16100
H1984       H  0.25126487  0.93917475  0.24593383     0.09100
H1985       H  0.37106836  0.04750778  0.33226940     0.07000
H1986       H  0.37287978  0.01927814  0.30606816     0.08200
H1987       H  0.35157224  0.00332396  0.34090882     0.07200
H1988       H  0.21867809  0.97243957  0.25938180     0.02100
H1989       H  0.24006302  0.01592260  0.24866953     0.02600
H1990       H  0.21809097  0.00276526  0.28379713     0.06100
H1991       H  0.32936493  0.06510676  0.19590555     0.05100
H1992       H  0.34382084  0.05276164  0.22774362    -0.00700
H1993       H  0.30982586  0.06040308  0.23186923     0.00800
H1994       H  0.23932092  0.89931092  0.17707783     0.04500
H1995       H  0.20354912  0.90386364  0.18436199     0.06400
H1996       H  0.22259574  0.89437267  0.21416221     0.07300
C1997       C  0.24612505  0.11418530  0.99908089    -0.22300
C1998       C  0.26788352  0.10591102  0.01238136     0.09600
C1999       C  0.30259944  0.12881029  0.01123989     0.10000
C2000       C  0.31491532  0.15866015  0.99514621    -0.17300
C2001       C  0.29327322  0.16607540  0.98005091    -0.27700
C2002       C  0.25830547  0.14427674  0.98347345     0.18400
C2003       C  0.25436954  0.07208412  0.02508141     0.12300
C2004       C  0.32665736  0.12113670  0.02619256    -0.12000
H2005       H  0.34162973  0.17534026  0.99294274     0.12600
C2006       C  0.23305184  0.15205478  0.97147518    -0.22900
H2007       H  0.21945199  0.09684355  0.00056473     0.08200
C2008       C  0.24492310  0.06485914  0.05547831     0.04600
C2009       C  0.23787162  0.03405648  0.06732907    -0.20100
C2010       C  0.24012069  0.01055184  0.04930917    -0.12400
C2011       C  0.24615426  0.01659886  0.01815556     0.13300
C2012       C  0.25350575  0.04740842  0.00654290    -0.22800
C2013       C  0.24358268  0.09014491  0.07550331    -0.05900
H2014       H  0.23288857  0.02931514  0.09113907     0.14800
C2015       C  0.24530930  0.99124783  0.99655088    -0.16100
H2016       H  0.25980285  0.05269764  0.98294929     0.09100
H2017       H  0.21607355  0.15014218  0.98988663     0.07000
H2018       H  0.21810462  0.13393191  0.95356169     0.08200
H2019       H  0.24458851  0.17762934  0.96256062     0.07200
H2020       H  0.32417276  0.09809693  0.01639567     0.02100
H2021       H  0.32123118  0.11745455  0.05059888     0.02600
H2022       H  0.35292069  0.14168759  0.02327277     0.06100
H2023       H  0.23586030  0.08062300  0.09869321     0.05100
H2024       H  0.22529799  0.09622771  0.06645367    -0.00700
H2025       H  0.26852310  0.11324599  0.07653799     0.00800
H2026       H  0.22684028  0.98608442  0.97864009     0.04500
H2027       H  0.23791618  0.96709997  0.00730437     0.06400
H2028       H  0.27021412  0.00134036  0.98603353     0.07300
C2029       C  0.31558950  0.92795444  0.94786384    -0.22300
C2030       C  0.32525534  0.95982905  0.93745152     0.09600
C2031       C  0.32592150  0.98383991  0.95704811     0.10000
C2032       C  0.31648962  0.97517819  0.98698251    -0.17300
C2033       C  0.30586817  0.94293104  0.99731989    -0.27700
C2034       C  0.30622515  0.91921759  0.97773998     0.18400
C2035       C  0.33541417  0.96741492  0.90595741     0.12300
C2036       C  0.33602303  0.01822022  0.94621816    -0.12000
H2037       H  0.31622841  0.99327422  0.00213727     0.12600
C2038       C  0.29804252  0.88502469  0.98760935    -0.22900
H2039       H  0.31579529  0.90991448  0.93259527     0.08200
C2040       C  0.36811074  0.97726978  0.89698005     0.04600
C2041       C  0.37576456  0.98036632  0.86641223    -0.20100
C2042       C  0.35141869  0.97393309  0.84493809    -0.12400
C2043       C  0.31883960  0.96489106  0.85393328     0.13300
C2044       C  0.31123344  0.96176879  0.88456917    -0.22800
C2045       C  0.39466831  0.98398508  0.91963012    -0.05900
H2046       H  0.40070265  0.98745260  0.85918003     0.14800
C2047       C  0.29130898  0.95703314  0.83199265    -0.16100
H2048       H  0.28609116  0.95393048  0.89180829     0.09100
H2049       H  0.31905886  0.88143242  0.98164678     0.07000
H2050       H  0.27523267  0.86571376  0.97592393     0.08200
H2051       H  0.29423734  0.88118836  0.01211699     0.07200
H2052       H  0.31888800  0.01634283  0.92816377     0.02100
H2053       H  0.36188235  0.03085288  0.93731014     0.02600
H2054       H  0.33506493  0.03389990  0.96454475     0.06100
H2055       H  0.41895875  0.99168420  0.90869420     0.05100
H2056       H  0.38709303  0.96112596  0.93284624    -0.00700
H2057       H  0.39829432  0.00430534  0.93504675     0.00800
H2058       H  0.27043230  0.93104192  0.83548072     0.04500
H2059       H  0.29932581  0.95930845  0.80826856     0.06400
H2060       H  0.28201456  0.97431001  0.83581796     0.07300
C2061       C  0.11753709  0.80783284  0.99596383    -0.22300
C2062       C  0.09749926  0.82133996  0.99036617     0.09600
C2063       C  0.10698630  0.85321655  0.00140289     0.10000
C2064       C  0.13644831  0.87095396  0.01805534    -0.17300
C2065       C  0.15621553  0.85712444  0.02495674    -0.27700
C2066       C  0.14659812  0.82501670  0.01332837     0.18400
C2067       C  0.06490787  0.79985989  0.97579127     0.12300
C2068       C  0.08538036  0.86796662  0.99654948    -0.12000
H2069       H  0.14331243  0.89538713  0.02662459     0.12600
C2070       C  0.16587462  0.80796219  0.01951235    -0.22900
H2071       H  0.10959943  0.78303636  0.98755159     0.08200
C2072       C  0.06094426  0.79896826  0.94439532     0.04600
C2073       C  0.03036475  0.77486624  0.93172814    -0.20100
C2074       C  0.00423956  0.75137405  0.94986981    -0.12400
C2075       C  0.00767293  0.75378749  0.98144446     0.13300
C2076       C  0.03805781  0.77794480  0.99396779    -0.22800
C2077       C  0.08942381  0.82225590  0.92430354    -0.05900
H2078       H  0.02772097  0.77280002  0.90755430     0.14800
C2079       C  0.97997939  0.73096507  0.00255085    -0.16100
H2080       H  0.04119149  0.77905742  0.01811657     0.09100
H2081       H  0.15471562  0.78333346  0.00811530     0.07000
H2082       H  0.16581352  0.80348431  0.04394566     0.08200
H2083       H  0.19185926  0.82353806  0.01118301     0.07200
H2084       H  0.06041479  0.85155788  0.00669730     0.02100
H2085       H  0.08244388  0.87039906  0.97220220     0.02600
H2086       H  0.09630543  0.89308244  0.00694109     0.06100
H2087       H  0.08220410  0.81793503  0.90027417     0.05100
H2088       H  0.11072750  0.81842217  0.92743480    -0.00700
H2089       H  0.09754062  0.84850031  0.92986110     0.00800
H2090       H  0.98746056  0.71546988  0.01514863     0.04500
H2091       H  0.95611488  0.71424762  0.99091254     0.06400
H2092       H  0.97519576  0.74615539  0.01874510     0.07300
C2093       C  0.13110735  0.72728676  0.21501131    -0.22300
C2094       C  0.12450720  0.73536991  0.18667161     0.09600
C2095       C  0.09624003  0.71165441  0.17054919     0.10000
C2096       C  0.07399226  0.68110666  0.18393977    -0.17300
C2097       C  0.07931924  0.67336923  0.21301942    -0.27700
C2098       C  0.10883964  0.69642178  0.22845140     0.18400
C2099       C  0.14770068  0.76844319  0.17359331     0.12300
C2100       C  0.08948981  0.71858855  0.13919608    -0.12000
H2101       H  0.05168409  0.66336134  0.17180675     0.12600
C2102       C  0.11648057  0.68938067  0.25936540    -0.22900
H2103       H  0.15335385  0.74545553  0.22683130     0.08200
C2104       C  0.14051343  0.79422295  0.17397740     0.04600
C2105       C  0.16034690  0.82307236  0.15699926    -0.20100
C2106       C  0.18752884  0.82696460  0.13995794    -0.12400
C2107       C  0.19586460  0.80173747  0.14134416     0.13300
C2108       C  0.17567157  0.77281721  0.15808361    -0.22800
C2109       C  0.11181062  0.79115190  0.19215192    -0.05900
H2110       H  0.15425255  0.84247926  0.15672428     0.14800
C2111       C  0.22499444  0.80405368  0.12444826    -0.16100
H2112       H  0.18097659  0.75281789  0.15822287     0.09100
H2113       H  0.09630551  0.68519419  0.27518809     0.07000
H2114       H  0.14028780  0.71046600  0.26813252     0.08200
H2115       H  0.11880751  0.66694999  0.25866877     0.07200
H2116       H  0.11060476  0.72355012  0.12426157     0.02100
H2117       H  0.08650105  0.74059819  0.13916808     0.02600
H2118       H  0.06639187  0.69713845  0.12975510     0.06100
H2119       H  0.10984076  0.81372044  0.19015548     0.05100
H2120       H  0.11548476  0.78782886  0.21617261    -0.00700
H2121       H  0.08793975  0.76936233  0.18446892     0.00800
H2122       H  0.24865077  0.82583884  0.13258530     0.04500
H2123       H  0.22210633  0.80635604  0.10003996     0.06400
H2124       H  0.22688178  0.78157375  0.12772019     0.07300
loop_ 
_geom_bond_atom_site_label_1 
_geom_bond_atom_site_label_2 
_geom_bond_distance 
_geom_bond_site_symmetry_2 
_ccdc_geom_bond_type 
O1          Cr19   2.003       .  S
O1            C9   1.266       .  A
O2          Cr19   1.960       .  S
O2            C3   1.255       .  A
C3            O4   1.269       .  A
C3         C1946   1.481       .  S
O4          Cr20   2.027       .  S
O5          Cr20   1.966       .  S
O5            C6   1.257       .  A
C6            O7   1.271       .  A
C6         C2106   1.489       .  S
O7          Cr21   2.023       .  S
O8          Cr21   1.953       .  S
O8            C9   1.254       .  A
C9         C1978   1.479       .  S
O10         Cr19   1.961       .  S
O10          C18   1.256       .  A
O11         Cr19   2.003       .  S
O11          C12   1.265       .  A
C12          O13   1.257       .  A
C12        C2033   1.464   1_554  S
O13         Cr20   1.957       .  S
O14         Cr20   2.020       .  S
O14          C15   1.269       .  A
C15          O16   1.260       .  A
C15        C2065   1.493       .  S
O16         Cr21   1.966       .  S
O17         Cr21   2.031       .  S
O17          C18   1.269       .  A
C18        C2010   1.479   1_565  S
Cr19         O22   1.761       .  S
Cr20         O22   1.761       .  S
Cr21         O22   1.766       .  S
O23         Cr41   1.961       .  S
O23          C31   1.260       .  A
O24         Cr41   1.995   1_545  S
O24          C25   1.259       .  A
C25          O26   1.260       .  A
C25        C1841   1.475       .  S
O26         Cr42   2.000       .  S
O27         Cr42   2.004       .  S
O27          C28   1.266       .  A
C28          O29   1.261   1_545  A
C28        C1873   1.488       .  S
O29         Cr43   1.985       .  S
O30         Cr43   2.006       .  S
O30          C31   1.270       .  A
C31        C2042   1.456       .  S
O32         Cr41   1.990       .  S
O32          C40   1.257       .  A
O33         Cr41   1.966       .  S
O33          C34   1.261   1_565  A
C34          O35   1.269       .  A
C34        C1809   1.463       .  S
O35         Cr42   2.014       .  S
O36         Cr42   1.988   1_565  S
O36          C37   1.262       .  A
C37          O38   1.266       .  A
C37        C1905   1.491       .  S
O38         Cr43   2.002       .  S
O39         Cr43   2.001       .  S
O39          C40   1.261       .  A
C40        C1777   1.478       .  S
Cr41         O44   1.772       .  S
Cr42         O44   1.767   1_545  S
Cr43         O44   1.768       .  S
O45         Cr63   1.969       .  S
O45          C53   1.261       .  A
O46         Cr63   1.993       .  S
O46          C47   1.257       .  A
C47          O48   1.262       .  A
C47        C1658   1.481       .  S
O48         Cr64   2.006       .  S
O49         Cr64   2.002       .  S
O49          C50   1.264       .  A
C50          O51   1.261       .  A
C50        C1722   1.481       .  S
O51         Cr65   1.984       .  S
O52         Cr65   2.014       .  S
O52          C53   1.272       .  A
C53        C1690   1.479       .  S
O54         Cr63   1.996       .  S
O54          C62   1.258       .  A
O55         Cr63   1.974       .  S
O55          C56   1.263       .  A
C56          O57   1.271       .  A
C56        C1617   1.475   1_554  S
O57         Cr64   2.015       .  S
O58         Cr64   1.988       .  S
O58          C59   1.264       .  A
C59          O60   1.265       .  A
C59        C1745   1.479       .  S
O60         Cr65   2.003       .  S
O61         Cr65   2.000       .  S
O61          C62   1.260       .  A
C62        C1585   1.484   1_455  S
Cr63         O66   1.774       .  S
Cr64         O66   1.768       .  S
Cr65         O66   1.769       .  S
O67         Cr85   1.990       .  S
O67          C75   1.257       .  A
O68         Cr85   1.973       .  S
O68          C69   1.262       .  A
C69          O70   1.269       .  A
C69        C1521   1.463       .  S
O70         Cr86   2.010       .  S
O71         Cr86   1.992       .  S
O71          C72   1.264       .  A
C72          O73   1.262       .  A
C72        C1850   1.478       .  S
O73         Cr87   1.990       .  S
O74         Cr87   1.999       .  S
O74          C75   1.260       .  A
C75        C1489   1.471       .  S
O76         Cr85   1.969       .  S
O76          C84   1.261       .  A
O77         Cr85   1.984       .  S
O77          C78   1.254       .  A
C78          O79   1.263       .  A
C78        C1754   1.498       .  S
O79         Cr86   2.008       .  S
O80         Cr86   1.997       .  S
O80          C81   1.264       .  A
C81          O82   1.265       .  A
C81        C2001   1.487       .  S
O82         Cr87   1.994       .  S
O83         Cr87   2.006       .  S
O83          C84   1.269       .  A
C84        C1562   1.477   1_556  S
Cr85         O88   1.772       .  S
Cr86         O88   1.768       .  S
Cr87         O88   1.770       .  S
O89        Cr107   1.972       .  S
O89          C97   1.263       .  A
O90        Cr107   1.994       .  S
O90          C91   1.259       .  A
C91          O92   1.260       .  A
C91        C1361   1.479   1_655  S
O92        Cr108   1.994       .  S
O93        Cr108   2.000       .  S
O93          C94   1.265       .  A
C94          O95   1.262       .  A
C94        C1457   1.486       .  S
O95        Cr109   1.983       .  S
O96        Cr109   2.006       .  S
O96          C97   1.268       .  A
C97        C1393   1.475       .  S
O98        Cr107   1.988       .  S
O98         C106   1.258       .  A
O99        Cr107   1.974       .  S
O99         C100   1.263       .  A
C100        O101   1.269       .  A
C100       C1681   1.486       .  S
O101       Cr108   2.013       .  S
O102       Cr108   1.982       .  S
O102        C103   1.260       .  A
C103        O104   1.263       .  A
C103       C1434   1.477       .  S
O104       Cr109   1.993       .  S
O105       Cr109   1.995       .  S
O105        C106   1.259       .  A
C106       C1329   1.475       .  S
Cr107       O110   1.770       .  S
Cr108       O110   1.768       .  S
Cr109       O110   1.770       .  S
O111       Cr129   1.999       .  S
O111        C119   1.262       .  A
O112       Cr129   1.971       .  S
O112        C113   1.260       .  A
C113        O114   1.265       .  A
C113       C1553   1.459       .  S
O114       Cr130   2.003       .  S
O115       Cr130   1.996       .  S
O115        C116   1.265       .  A
C116        O117   1.264       .  A
C116       C1297   1.493       .  S
O117       Cr131   2.002       .  S
O118       Cr131   2.000       .  S
O118        C119   1.262       .  A
C119       C1713   1.484       .  S
O120       Cr129   1.973       .  S
O120        C128   1.263       .  A
O121       Cr129   1.998       .  S
O121        C122   1.260       .  A
C122        O123   1.260       .  A
C122       C1201   1.472       .  S
O123       Cr130   1.995       .  S
O124       Cr130   1.995       .  S
O124        C125   1.263       .  A
C125        O126   1.262       .  A
C125       C1274   1.480       .  S
O126       Cr131   1.988       .  S
O127       Cr131   2.002       .  S
O127        C128   1.266       .  A
C128       C1242   1.488       .  S
Cr129       O132   1.768       .  S
Cr130       O132   1.767       .  S
Cr131       O132   1.763       .  S
O133       Cr151   2.012   1_655  S
O133        C141   1.267       .  A
O134       Cr151   1.951       .  S
O134        C135   1.254       .  A
C135        O136   1.269       .  A
C135       C1105   1.471       .  S
O136       Cr152   2.029       .  S
O137       Cr152   1.978       .  S
O137        C138   1.262       .  A
C138        O139   1.266   1_455  A
C138       C1146   1.494       .  S
O139       Cr153   2.011       .  S
O140       Cr153   1.966       .  S
O140        C141   1.259       .  A
C141       C1402   1.482       .  S
O142       Cr151   1.964   1_655  S
O142        C150   1.255       .  A
O143       Cr151   2.012       .  S
O143        C144   1.266       .  A
C144        O145   1.258       .  A
C144       C1626   1.480       .  S
O145       Cr152   1.968       .  S
O146       Cr152   2.016       .  S
O146        C147   1.269   1_455  A
C147        O148   1.261       .  A
C147       C1169   1.487       .  S
O148       Cr153   1.967       .  S
O149       Cr153   2.021       .  S
O149        C150   1.266       .  A
C150       C1082   1.470       .  S
Cr151       O154   1.762       .  S
Cr152       O154   1.766       .  S
Cr153       O154   1.765   1_655  S
O155       Cr173   1.973       .  S
O155        C163   1.261       .  A
O156       Cr173   1.983       .  S
O156        C157   1.258       .  A
C157        O158   1.264       .  A
C157        C977   1.492       .  S
O158       Cr174   2.010       .  S
O159       Cr174   1.990       .  S
O159        C160   1.260       .  A
C160        O161   1.264       .  A
C160       C1210   1.494       .  S
O161       Cr175   1.994       .  S
O162       Cr175   2.000       .  S
O162        C163   1.269       .  A
C163       C1969   1.483       .  S
O164       Cr173   1.990   1_565  S
O164        C172   1.257   1_565  A
O165       Cr173   1.981       .  S
O165        C166   1.264       .  A
C166        O167   1.268       .  A
C166       C1818   1.481       .  S
O167       Cr174   2.004       .  S
O168       Cr174   1.993       .  S
O168        C169   1.266       .  A
C169        O170   1.264       .  A
C169       C1041   1.475       .  S
O170       Cr175   1.989       .  S
O171       Cr175   1.995       .  S
O171        C172   1.259       .  A
C172       C1009   1.473   1_545  S
Cr173       O176   1.769       .  S
Cr174       O176   1.768       .  S
Cr175       O176   1.764       .  S
O177       Cr195   1.961       .  S
O177        C185   1.255       .  A
O178       Cr195   2.003       .  S
O178        C179   1.265       .  A
C179        O180   1.257       .  A
C179       C1530   1.471       .  S
O180       Cr196   1.969       .  S
O181       Cr196   2.022       .  S
O181        C182   1.271       .  A
C182        O183   1.262       .  A
C182       C1114   1.494       .  S
O183       Cr197   1.966       .  S
O184       Cr197   2.027       .  S
O184        C185   1.267       .  A
C185        C945   1.472       .  S
O186       Cr195   2.009       .  S
O186        C194   1.267       .  A
O187       Cr195   1.947       .  S
O187        C188   1.253       .  A
C188        O189   1.270       .  A
C188       C1050   1.470       .  S
O189       Cr196   2.031       .  S
O190       Cr196   1.981       .  S
O190        C191   1.260       .  A
C191        O192   1.266       .  A
C191       C1370   1.489       .  S
O192       Cr197   2.012       .  S
O193       Cr197   1.961       .  S
O193        C194   1.257       .  A
C194       C1233   1.475       .  S
Cr195       O198   1.762       .  S
Cr196       O198   1.767       .  S
Cr197       O198   1.764       .  S
O199       Cr217   1.993   1_655  S
O199        C207   1.256   1_655  A
O200       Cr217   1.967       .  S
O200        C201   1.262       .  A
C201        O202   1.274       .  A
C201        C881   1.487       .  S
O202       Cr218   2.020       .  S
O203       Cr218   1.979       .  S
O203        C204   1.261       .  A
C204        O205   1.263       .  A
C204       C1018   1.472       .  S
O205       Cr219   1.994       .  S
O206       Cr219   1.996       .  S
O206        C207   1.258       .  A
C207        C849   1.472   1_455  S
O208       Cr217   1.967       .  S
O208        C216   1.262       .  A
O209       Cr217   1.992       .  S
O209        C210   1.257       .  A
C210        O211   1.257       .  A
C210       C1137   1.486       .  S
O211       Cr218   1.997       .  S
O212       Cr218   1.999       .  S
O212        C213   1.264       .  A
C213        O214   1.261       .  A
C213       C1786   1.477       .  S
O214       Cr219   1.981       .  S
O215       Cr219   2.012       .  S
O215        C216   1.273       .  A
C216        C913   1.489       .  S
Cr217       O220   1.771       .  S
Cr218       O220   1.769       .  S
Cr219       O220   1.768       .  S
O221       Cr239   1.957       .  S
O221        C229   1.255       .  A
O222       Cr239   2.016       .  S
O222        C223   1.267       .  A
C223        O224   1.257       .  A
C223        C794   1.483       .  S
O224       Cr240   1.965       .  S
O225       Cr240   2.026       .  S
O225        C226   1.270       .  A
C226        O227   1.261       .  A
C226        C721   1.494       .  S
O227       Cr241   1.973       .  S
O228       Cr241   2.028       .  S
O228        C229   1.269       .  A
C229       C1466   1.480   1_565  S
O230       Cr239   2.012       .  S
O230        C238   1.267       .  A
O231       Cr239   1.953       .  S
O231        C232   1.253       .  A
C232        O233   1.271       .  A
C232       C1914   1.479       .  S
O233       Cr240   2.038       .  S
O234       Cr240   1.972       .  S
O234        C235   1.262       .  A
C235        O236   1.268       .  A
C235        C753   1.493       .  S
O236       Cr241   2.017       .  S
O237       Cr241   1.967       .  S
O237        C238   1.258       .  A
C238        C817   1.480       .  S
Cr239       O242   1.766       .  S
Cr240       O242   1.769       .  S
Cr241       O242   1.766       .  S
O243       Cr261   1.950   1_455  S
O243        C251   1.256       .  A
O244       Cr261   2.009       .  S
O244        C245   1.264       .  A
C245        O246   1.259       .  A
C245        C698   1.489       .  S
O246       Cr262   1.971       .  S
O247       Cr262   2.026       .  S
O247        C248   1.271   1_655  A
C248        O249   1.262       .  A
C248       C1649   1.502       .  S
O249       Cr263   1.976       .  S
O250       Cr263   2.035       .  S
O250        C251   1.272       .  A
C251       C2097   1.483       .  S
O252       Cr261   2.009   1_455  S
O252        C260   1.263       .  A
O253       Cr261   1.946       .  S
O253        C254   1.254       .  A
C254        O255   1.272       .  A
C254        C666   1.477       .  S
O255       Cr262   2.037       .  S
O256       Cr262   1.959       .  S
O256        C257   1.255       .  A
C257        O258   1.271       .  A
C257       C1338   1.489       .  S
O258       Cr263   2.023   1_655  S
O259       Cr263   1.974       .  S
O259        C260   1.260       .  A
C260        C890   1.491       .  S
Cr261       O264   1.761       .  S
Cr262       O264   1.763       .  S
Cr263       O264   1.766   1_455  S
O265       Cr283   1.971       .  S
O265        C273   1.261       .  A
O266       Cr283   1.988       .  S
O266        C267   1.257       .  A
C267        O268   1.262       .  A
C267        C730   1.479       .  S
O268       Cr284   2.004       .  S
O269       Cr284   1.996       .  S
O269        C270   1.264       .  A
C270        O271   1.261       .  A
C270        C858   1.479       .  S
O271       Cr285   1.985       .  S
O272       Cr285   2.012       .  S
O272        C273   1.269       .  A
C273        C602   1.466       .  S
O274       Cr283   1.992       .  S
O274        C282   1.258       .  A
O275       Cr283   1.974       .  S
O275        C276   1.265       .  A
C276        O277   1.266       .  A
C276        C634   1.487       .  S
O277       Cr284   2.004       .  S
O278       Cr284   1.991       .  S
O278        C279   1.264       .  A
C279        O280   1.267       .  A
C279        C657   1.500       .  S
O280       Cr285   2.001       .  S
O281       Cr285   1.992       .  S
O281        C282   1.259       .  A
C282       C1265   1.468       .  S
Cr283       O286   1.769       .  S
Cr284       O286   1.765       .  S
Cr285       O286   1.770       .  S
O287       Cr305   1.970       .  S
O287        C295   1.261       .  A
O288       Cr305   1.995       .  S
O288        C289   1.261       .  A
C289        O290   1.260       .  A
C289        C538   1.480       .  S
O290       Cr306   1.991       .  S
O291       Cr306   2.003       .  S
O291        C292   1.266       .  A
C292        O293   1.263       .  A
C292       C1498   1.480       .  S
O293       Cr307   1.979       .  S
O294       Cr307   2.008       .  S
O294        C295   1.266       .  A
C295        C561   1.484       .  S
O296       Cr305   1.995       .  S
O296        C304   1.260       .  A
O297       Cr305   1.971       .  S
O297        C298   1.261       .  A
C298        O299   1.268       .  A
C298        C593   1.478       .  S
O299       Cr306   2.007       .  S
O300       Cr306   1.988       .  S
O300        C301   1.261       .  A
C301        O302   1.263       .  A
C301        C954   1.478       .  S
O302       Cr307   1.995       .  S
O303       Cr307   1.990       .  S
O303        C304   1.261       .  A
C304        C762   1.477       .  S
Cr305       O308   1.767       .  S
Cr306       O308   1.768       .  S
Cr307       O308   1.768       .  S
O309       Cr327   1.957       .  S
O309        C317   1.254       .  A
O310       Cr327   2.009       .  S
O310        C311   1.267       .  A
C311        O312   1.258       .  A
C311        C826   1.488       .  S
O312       Cr328   1.969       .  S
O313       Cr328   2.003       .  S
O313        C314   1.266       .  A
C314        O315   1.263       .  A
C314       C1073   1.487       .  S
O315       Cr329   1.982       .  S
O316       Cr329   2.036       .  S
O316        C317   1.270       .  A
C317       C1882   1.475       .  S
O318       Cr327   2.013       .  S
O318        C326   1.266       .  A
O319       Cr327   1.958       .  S
O319        C320   1.254       .  A
C320        O321   1.265       .  A
C320        C465   1.463   1_545  S
O321       Cr328   2.016       .  S
O322       Cr328   1.980       .  S
O322        C323   1.261       .  A
C323        O324   1.271       .  A
C323       C1594   1.493       .  S
O324       Cr329   2.021       .  S
O325       Cr329   1.963       .  S
O325        C326   1.257       .  A
C326        C497   1.473   1_556  S
Cr327       O330   1.766       .  S
Cr328       O330   1.766       .  S
Cr329       O330   1.767       .  S
O331       Cr349   1.989   1_545  S
O331        C339   1.259       .  A
O332       Cr349   1.988       .  S
O332        C333   1.265       .  A
C333        O334   1.266       .  A
C333        C785   1.496       .  S
O334       Cr350   2.003       .  S
O335       Cr350   1.981       .  S
O335        C336   1.262   1_565  A
C336        O337   1.265       .  A
C336        C986   1.482       .  S
O337       Cr351   1.998       .  S
O338       Cr351   1.993       .  S
O338        C339   1.260       .  A
C339       C1425   1.472       .  S
O340       Cr349   1.978       .  S
O340        C348   1.264   1_565  A
O341       Cr349   1.997       .  S
O341        C342   1.261       .  A
C342        O343   1.260       .  A
C342        C442   1.476       .  S
O343       Cr350   1.993       .  S
O344       Cr350   1.994       .  S
O344        C345   1.263       .  A
C345        O346   1.262   1_565  A
C345       C1937   1.479       .  S
O346       Cr351   1.987       .  S
O347       Cr351   2.002       .  S
O347        C348   1.266       .  A
C348        C506   1.483       .  S
Cr349       O352   1.769       .  S
Cr350       O352   1.763       .  S
Cr351       O352   1.769   1_545  S
O353       Cr371   1.954       .  S
O353        C361   1.256       .  A
O354       Cr371   2.015       .  S
O354        C355   1.266       .  A
C355        O356   1.258       .  A
C355        C689   1.493   1_556  S
O356       Cr372   1.965       .  S
O357       Cr372   2.015       .  S
O357        C358   1.269       .  A
C358        O359   1.260       .  A
C358        C401   1.492       .  S
O359       Cr373   1.969       .  S
O360       Cr373   2.026       .  S
O360        C361   1.269       .  A
C361       C2074   1.471   1_655  S
O362       Cr371   2.014       .  S
O362        C370   1.266       .  A
O363       Cr371   1.951       .  S
O363        C364   1.255       .  A
C364        O365   1.269       .  A
C364       C1178   1.467       .  S
O365       Cr372   2.026       .  S
O366       Cr372   1.973       .  S
O366        C367   1.259       .  A
C367        O368   1.269       .  A
C367        C529   1.483       .  S
O368       Cr373   2.019       .  S
O369       Cr373   1.961       .  S
O369        C370   1.258       .  A
C370        C922   1.477       .  S
Cr371       O374   1.763       .  S
Cr372       O374   1.763       .  S
Cr373       O374   1.764       .  S
O375       Cr393   2.007       .  S
O375        C383   1.264       .  A
O376       Cr393   1.959       .  S
O376        C377   1.256       .  A
C377        O378   1.270       .  A
C377        C410   1.475       .  S
O378       Cr394   2.030       .  S
O379       Cr394   1.959       .  S
O379        C380   1.256       .  A
C380        O381   1.271       .  A
C380        C474   1.484       .  S
O381       Cr395   2.021       .  S
O382       Cr395   1.966       .  S
O382        C383   1.258       .  A
C383        C570   1.487   1_554  S
O384       Cr393   1.953       .  S
O384        C392   1.256       .  A
O385       Cr393   2.008       .  S
O385        C386   1.265       .  A
C386        O387   1.259       .  A
C386        C625   1.487       .  S
O387       Cr394   1.961       .  S
O388       Cr394   2.024       .  S
O388        C389   1.271       .  A
C389        O390   1.258       .  A
C389        C433   1.496       .  S
O390       Cr395   1.969       .  S
O391       Cr395   2.036       .  S
O391        C392   1.271       .  A
C392       C1306   1.478       .  S
Cr393       O396   1.760       .  S
Cr394       O396   1.764       .  S
Cr395       O396   1.763       .  S
C397        C398   1.400   1_556  A
C397        C402   1.402       .  A
C397        H407   1.084       .  S
C398        C403   1.481       .  S
C398        C399   1.407   1_554  A
C399        C400   1.405       .  A
C399        C404   1.506   1_556  S
C400        C401   1.412       .  A
C400        H405   1.083       .  S
C401        C402   1.422       .  A
C402        C406   1.509       .  S
C403        C408   1.410   1_554  A
C403        C412   1.402       .  A
C404        H420   1.110       .  S
C404        H421   1.110   1_554  S
C404        H422   1.111   1_554  S
C406        H417   1.111       .  S
C406        H418   1.110       .  S
C406        H419   1.111       .  S
C408        C409   1.401   1_556  A
C408        C413   1.507       .  S
C409        C410   1.404       .  A
C409        H414   1.084       .  S
C410        C411   1.418       .  A
C411        C412   1.406       .  A
C411        C415   1.508       .  S
C412        H416   1.082       .  S
C413        H423   1.111       .  S
C413        H424   1.109       .  S
C413        H425   1.110       .  S
C415        H426   1.110       .  S
C415        H427   1.105       .  S
C415        H428   1.110       .  S
C429        C430   1.398       .  A
C429        C434   1.407       .  A
C429        H439   1.084       .  S
C430        C435   1.482       .  S
C430        C431   1.409       .  A
C431        C432   1.404       .  A
C431        C436   1.508       .  S
C432        C433   1.409       .  A
C432        H437   1.083       .  S
C433        C434   1.425       .  A
C434        C438   1.509       .  S
C435        C440   1.412       .  A
C435        C444   1.400       .  A
C436        H452   1.110       .  S
C436        H453   1.110       .  S
C436        H454   1.111       .  S
C438        H449   1.111       .  S
C438        H450   1.111       .  S
C438        H451   1.110       .  S
C440        C441   1.406       .  A
C440        C445   1.506       .  S
C441        C442   1.404       .  A
C441        H446   1.085       .  S
C442        C443   1.416       .  A
C443        C444   1.402       .  A
C443        C447   1.508       .  S
C444        H448   1.085       .  S
C445        H455   1.111       .  S
C445        H456   1.110       .  S
C445        H457   1.109       .  S
C447        H458   1.111       .  S
C447        H459   1.108       .  S
C447        H460   1.110       .  S
C461        C462   1.400       .  A
C461        C466   1.400       .  A
C461        H471   1.083       .  S
C462        C467   1.474       .  S
C462        C463   1.410       .  A
C463        C464   1.402       .  A
C463        C468   1.506   1_556  S
C464        C465   1.401       .  A
C464        H469   1.079   1_565  S
C465        C466   1.413       .  A
C466        C470   1.507       .  S
C467        C472   1.409   1_556  A
C467        C476   1.397       .  A
C468        H484   1.110       .  S
C468        H485   1.110       .  S
C468        H486   1.111       .  S
C470        H481   1.110       .  S
C470        H482   1.110       .  S
C470        H483   1.107       .  S
C472        C473   1.400       .  A
C472        C477   1.508       .  S
C473        C474   1.406       .  A
C473        H478   1.083       .  S
C474        C475   1.423       .  A
C475        C476   1.404   1_554  A
C475        C479   1.509       .  S
C476        H480   1.084       .  S
C477        H487   1.111       .  S
C477        H488   1.110   1_554  S
C477        H489   1.110       .  S
C479        H490   1.111   1_554  S
C479        H491   1.110       .  S
C479        H492   1.110       .  S
C493        C494   1.397       .  A
C493        C498   1.400       .  A
C493        H503   1.084       .  S
C494        C499   1.474       .  S
C494        C495   1.411       .  A
C495        C496   1.404       .  A
C495        C500   1.506       .  S
C496        C497   1.402       .  A
C496        H501   1.083   1_554  S
C497        C498   1.417       .  A
C498        C502   1.508       .  S
C499        C504   1.408   1_545  A
C499        C508   1.397       .  A
C500        H516   1.110       .  S
C500        H517   1.110   1_545  S
C500        H518   1.111       .  S
C502        H513   1.111       .  S
C502        H514   1.109       .  S
C502        H515   1.110       .  S
C504        C505   1.402       .  A
C504        C509   1.506       .  S
C505        C506   1.408   1_565  A
C505        H510   1.087       .  S
C506        C507   1.421       .  A
C507        C508   1.400       .  A
C507        C511   1.510       .  S
C508        H512   1.086       .  S
C509        H519   1.111       .  S
C509        H520   1.110       .  S
C509        H521   1.110       .  S
C511        H522   1.111       .  S
C511        H523   1.109       .  S
C511        H524   1.111       .  S
C525        C526   1.402       .  A
C525        C530   1.404       .  A
C525        H535   1.085       .  S
C526        C531   1.484       .  S
C526        C527   1.409       .  A
C527        C528   1.405       .  A
C527        C532   1.506       .  S
C528        C529   1.408       .  A
C528        H533   1.084       .  S
C529        C530   1.417       .  A
C530        C534   1.507       .  S
C531        C536   1.410       .  A
C531        C540   1.404       .  A
C532        H548   1.110       .  S
C532        H549   1.110       .  S
C532        H550   1.111       .  S
C534        H545   1.110       .  S
C534        H546   1.111       .  S
C534        H547   1.106       .  S
C536        C537   1.400       .  A
C536        C541   1.508       .  S
C537        C538   1.405       .  A
C537        H542   1.084       .  S
C538        C539   1.418       .  A
C539        C540   1.409       .  A
C539        C543   1.507       .  S
C540        H544   1.084       .  S
C541        H551   1.111       .  S
C541        H552   1.109       .  S
C541        H553   1.111       .  S
C543        H554   1.110       .  S
C543        H555   1.105       .  S
C543        H556   1.111       .  S
C557        C558   1.398       .  A
C557        C562   1.403       .  A
C557        H567   1.084       .  S
C558        C563   1.474       .  S
C558        C559   1.408       .  A
C559        C560   1.400       .  A
C559        C564   1.507       .  S
C560        C561   1.408       .  A
C560        H565   1.083       .  S
C561        C562   1.421       .  A
C562        C566   1.508       .  S
C563        C568   1.407       .  A
C563        C572   1.398       .  A
C564        H580   1.110       .  S
C564        H581   1.110       .  S
C564        H582   1.111       .  S
C566        H577   1.110       .  S
C566        H578   1.111       .  S
C566        H579   1.110       .  S
C568        C569   1.400       .  A
C568        C573   1.507       .  S
C569        C570   1.409       .  A
C569        H574   1.083       .  S
C570        C571   1.422       .  A
C571        C572   1.403       .  A
C571        C575   1.508   1_556  S
C572        H576   1.085       .  S
C573        H583   1.111       .  S
C573        H584   1.110       .  S
C573        H585   1.110       .  S
C575        H586   1.110       .  S
C575        H587   1.110       .  S
C575        H588   1.111   1_554  S
C589        C590   1.399       .  A
C589        C594   1.400       .  A
C589        H599   1.087       .  S
C590        C595   1.475       .  S
C590        C591   1.409       .  A
C591        C592   1.403       .  A
C591        C596   1.507       .  S
C592        C593   1.407       .  A
C592        H597   1.086       .  S
C593        C594   1.418       .  A
C594        C598   1.509       .  S
C595        C600   1.410       .  A
C595        C604   1.402       .  A
C596        H612   1.110       .  S
C596        H613   1.109       .  S
C596        H614   1.111       .  S
C598        H609   1.111       .  S
C598        H610   1.110       .  S
C598        H611   1.106       .  S
C600        C601   1.402       .  A
C600        C605   1.507       .  S
C601        C602   1.403       .  A
C601        H606   1.085       .  S
C602        C603   1.413       .  A
C603        C604   1.401       .  A
C603        C607   1.508       .  S
C604        H608   1.084       .  S
C605        H615   1.111       .  S
C605        H616   1.110       .  S
C605        H617   1.109       .  S
C607        H618   1.110       .  S
C607        H619   1.108       .  S
C607        H620   1.110       .  S
C621        C622   1.398       .  A
C621        C626   1.404       .  A
C621        H631   1.082       .  S
C622        C627   1.471       .  S
C622        C623   1.405       .  A
C623        C624   1.397       .  A
C623        C628   1.508       .  S
C624        C625   1.409       .  A
C624        H629   1.082       .  S
C625        C626   1.423       .  A
C626        C630   1.508       .  S
C627        C632   1.406       .  A
C627        C636   1.396       .  A
C628        H644   1.110       .  S
C628        H645   1.110       .  S
C628        H646   1.111       .  S
C630        H641   1.111       .  S
C630        H642   1.110       .  S
C630        H643   1.110       .  S
C632        C633   1.400       .  A
C632        C637   1.507       .  S
C633        C634   1.408       .  A
C633        H638   1.083       .  S
C634        C635   1.425       .  A
C635        C636   1.401       .  A
C635        C639   1.509       .  S
C636        H640   1.084       .  S
C637        H647   1.111       .  S
C637        H648   1.110       .  S
C637        H649   1.110       .  S
C639        H650   1.111       .  S
C639        H651   1.107       .  S
C639        H652   1.110       .  S
C653        C654   1.401       .  A
C653        C658   1.407       .  A
C653        H663   1.085       .  S
C654        C659   1.484       .  S
C654        C655   1.408       .  A
C655        C656   1.404       .  A
C655        C660   1.507       .  S
C656        C657   1.412       .  A
C656        H661   1.084       .  S
C657        C658   1.422       .  A
C658        C662   1.505       .  S
C659        C664   1.413       .  A
C659        C668   1.399       .  A
C660        H676   1.109       .  S
C660        H677   1.110       .  S
C660        H678   1.111       .  S
C662        H673   1.109       .  S
C662        H674   1.111       .  S
C662        H675   1.110       .  S
C664        C665   1.408       .  A
C664        C669   1.505       .  S
C665        C666   1.404       .  A
C665        H670   1.085       .  S
C666        C667   1.418       .  A
C667        C668   1.398       .  A
C667        C671   1.511       .  S
C668        H672   1.085       .  S
C669        H679   1.111       .  S
C669        H680   1.109       .  S
C669        H681   1.110       .  S
C671        H682   1.111       .  S
C671        H683   1.108       .  S
C671        H684   1.111       .  S
C685        C686   1.400       .  A
C685        C690   1.405       .  A
C685        H695   1.085       .  S
C686        C691   1.479       .  S
C686        C687   1.406       .  A
C687        C688   1.400       .  A
C687        C692   1.507       .  S
C688        C689   1.411       .  A
C688        H693   1.084       .  S
C689        C690   1.422       .  A
C690        C694   1.508   1_554  S
C691        C696   1.408       .  A
C691        C700   1.399       .  A
C692        H708   1.110       .  S
C692        H709   1.110       .  S
C692        H710   1.111       .  S
C694        H705   1.110       .  S
C694        H706   1.111   1_656  S
C694        H707   1.110       .  S
C696        C697   1.401       .  A
C696        C701   1.507       .  S
C697        C698   1.409       .  A
C697        H702   1.085       .  S
C698        C699   1.422       .  A
C699        C700   1.404       .  A
C699        C703   1.508       .  S
C700        H704   1.086       .  S
C701        H711   1.111       .  S
C701        H712   1.110       .  S
C701        H713   1.111       .  S
C703        H714   1.110       .  S
C703        H715   1.110       .  S
C703        H716   1.111       .  S
C717        C718   1.401       .  A
C717        C722   1.407       .  A
C717        H727   1.084       .  S
C718        C723   1.486       .  S
C718        C719   1.408       .  A
C719        C720   1.405       .  A
C719        C724   1.506       .  S
C720        C721   1.409       .  A
C720        H725   1.084       .  S
C721        C722   1.422       .  A
C722        C726   1.508       .  S
C723        C728   1.413       .  A
C723        C732   1.400       .  A
C724        H740   1.110       .  S
C724        H741   1.110       .  S
C724        H742   1.111       .  S
C726        H737   1.109       .  S
C726        H738   1.111       .  S
C726        H739   1.110       .  S
C728        C729   1.407       .  A
C728        C733   1.506       .  S
C729        C730   1.404       .  A
C729        H734   1.085       .  S
C730        C731   1.418       .  A
C731        C732   1.403       .  A
C731        C735   1.508       .  S
C732        H736   1.084       .  S
C733        H743   1.111       .  S
C733        H744   1.110       .  S
C733        H745   1.110       .  S
C735        H746   1.110       .  S
C735        H747   1.109       .  S
C735        H748   1.111       .  S
C749        C750   1.399       .  A
C749        C754   1.404       .  A
C749        H759   1.083       .  S
C750        C755   1.479       .  S
C750        C751   1.406       .  A
C751        C752   1.404       .  A
C751        C756   1.506       .  S
C752        C753   1.411       .  A
C752        H757   1.083       .  S
C753        C754   1.423       .  A
C754        C758   1.509       .  S
C755        C760   1.411       .  A
C755        C764   1.399       .  A
C756        H772   1.110       .  S
C756        H773   1.110       .  S
C756        H774   1.111       .  S
C758        H769   1.111       .  S
C758        H770   1.110       .  S
C758        H771   1.109       .  S
C760        C761   1.405       .  A
C760        C765   1.506       .  S
C761        C762   1.404       .  A
C761        H766   1.085       .  S
C762        C763   1.417       .  A
C763        C764   1.401       .  A
C763        C767   1.509       .  S
C764        H768   1.084       .  S
C765        H775   1.111       .  S
C765        H776   1.110       .  S
C765        H777   1.110       .  S
C767        H778   1.111       .  S
C767        H779   1.109       .  S
C767        H780   1.110       .  S
C781        C782   1.396       .  A
C781        C786   1.402       .  A
C781        H791   1.086       .  S
C782        C787   1.480       .  S
C782        C783   1.408       .  A
C783        C784   1.406       .  A
C783        C788   1.506   1_565  S
C784        C785   1.410       .  A
C784        H789   1.084   1_565  S
C785        C786   1.426       .  A
C786        C790   1.509       .  S
C787        C792   1.410       .  A
C787        C796   1.399       .  A
C788        H804   1.110       .  S
C788        H805   1.110       .  S
C788        H806   1.111       .  S
C790        H801   1.111       .  S
C790        H802   1.110       .  S
C790        H803   1.110       .  S
C792        C793   1.406       .  A
C792        C797   1.506       .  S
C793        C794   1.406       .  A
C793        H798   1.082       .  S
C794        C795   1.420       .  A
C795        C796   1.402       .  A
C795        C799   1.510       .  S
C796        H800   1.083       .  S
C797        H807   1.111       .  S
C797        H808   1.110       .  S
C797        H809   1.110       .  S
C799        H810   1.110       .  S
C799        H811   1.111       .  S
C799        H812   1.111       .  S
C813        C814   1.400       .  A
C813        C818   1.402       .  A
C813        H823   1.084       .  S
C814        C819   1.479       .  S
C814        C815   1.410       .  A
C815        C816   1.404       .  A
C815        C820   1.506       .  S
C816        C817   1.406       .  A
C816        H821   1.084       .  S
C817        C818   1.417       .  A
C818        C822   1.508       .  S
C819        C824   1.409       .  A
C819        C828   1.399   1_565  A
C820        H836   1.110   1_565  S
C820        H837   1.110       .  S
C820        H838   1.111   1_565  S
C822        H833   1.109       .  S
C822        H834   1.111       .  S
C822        H835   1.111       .  S
C824        C825   1.403       .  A
C824        C829   1.506       .  S
C825        C826   1.408   1_565  A
C825        H830   1.082       .  S
C826        C827   1.422       .  A
C827        C828   1.403       .  A
C827        C831   1.509       .  S
C828        H832   1.083       .  S
C829        H839   1.111       .  S
C829        H840   1.110       .  S
C829        H841   1.110       .  S
C831        H842   1.110       .  S
C831        H843   1.111       .  S
C831        H844   1.111       .  S
C845        C846   1.401       .  A
C845        C850   1.403       .  A
C845        H855   1.084       .  S
C846        C851   1.482       .  S
C846        C847   1.413       .  A
C847        C848   1.404       .  A
C847        C852   1.507       .  S
C848        C849   1.402       .  A
C848        H853   1.084       .  S
C849        C850   1.416       .  A
C850        C854   1.508       .  S
C851        C856   1.412       .  A
C851        C860   1.400       .  A
C852        H868   1.110       .  S
C852        H869   1.111       .  S
C852        H870   1.111       .  S
C854        H865   1.110       .  S
C854        H866   1.110       .  S
C854        H867   1.108       .  S
C856        C857   1.405       .  A
C856        C861   1.507       .  S
C857        C858   1.404       .  A
C857        H862   1.084       .  S
C858        C859   1.417       .  A
C859        C860   1.402       .  A
C859        C863   1.506       .  S
C860        H864   1.084       .  S
C861        H871   1.111       .  S
C861        H872   1.110       .  S
C861        H873   1.110       .  S
C863        H874   1.111       .  S
C863        H875   1.105       .  S
C863        H876   1.110       .  S
C877        C878   1.400       .  A
C877        C882   1.404       .  A
C877        H887   1.084   1_455  S
C878        C883   1.480       .  S
C878        C879   1.409       .  A
C879        C880   1.402       .  A
C879        C884   1.507       .  S
C880        C881   1.408       .  A
C880        H885   1.084       .  S
C881        C882   1.421       .  A
C882        C886   1.509   1_455  S
C883        C888   1.409       .  A
C883        C892   1.400       .  A
C884        H900   1.110       .  S
C884        H901   1.110       .  S
C884        H902   1.111       .  S
C886        H897   1.111       .  S
C886        H898   1.110       .  S
C886        H899   1.111       .  S
C888        C889   1.399       .  A
C888        C893   1.508       .  S
C889        C890   1.408       .  A
C889        H894   1.084       .  S
C890        C891   1.423       .  A
C891        C892   1.407       .  A
C891        C895   1.508       .  S
C892        H896   1.084       .  S
C893        H903   1.111       .  S
C893        H904   1.109   1_455  S
C893        H905   1.110       .  S
C895        H906   1.111       .  S
C895        H907   1.110       .  S
C895        H908   1.110       .  S
C909        C910   1.398       .  A
C909        C914   1.403       .  A
C909        H919   1.084       .  S
C910        C915   1.474   1_455  S
C910        C911   1.407       .  A
C911        C912   1.398       .  A
C911        C916   1.508       .  S
C912        C913   1.409       .  A
C912        H917   1.083       .  S
C913        C914   1.424       .  A
C914        C918   1.509       .  S
C915        C920   1.408       .  A
C915        C924   1.401   1_655  A
C916        H932   1.110       .  S
C916        H933   1.110   1_455  S
C916        H934   1.111       .  S
C918        H929   1.111       .  S
C918        H930   1.108       .  S
C918        H931   1.110   1_455  S
C920        C921   1.397       .  A
C920        C925   1.508       .  S
C921        C922   1.405       .  A
C921        H926   1.085       .  S
C922        C923   1.416   1_655  A
C923        C924   1.405       .  A
C923        C927   1.507       .  S
C924        H928   1.084       .  S
C925        H935   1.111       .  S
C925        H936   1.110       .  S
C925        H937   1.110       .  S
C927        H938   1.110       .  S
C927        H939   1.110       .  S
C927        H940   1.111       .  S
C941        C942   1.402       .  A
C941        C946   1.400       .  A
C941        H951   1.084       .  S
C942        C947   1.482       .  S
C942        C943   1.411       .  A
C943        C944   1.407       .  A
C943        C948   1.505       .  S
C944        C945   1.405       .  A
C944        H949   1.084       .  S
C945        C946   1.414       .  A
C946        C950   1.509       .  S
C947        C952   1.409       .  A
C947        C956   1.402       .  A
C948        H964   1.110       .  S
C948        H965   1.110       .  S
C948        H966   1.111       .  S
C950        H961   1.110       .  S
C950        H962   1.110       .  S
C950        H963   1.109       .  S
C952        C953   1.403       .  A
C952        C957   1.507       .  S
C953        C954   1.406       .  A
C953        H958   1.085       .  S
C954        C955   1.417       .  A
C955        C956   1.404       .  A
C955        C959   1.508       .  S
C956        H960   1.086       .  S
C957        H967   1.111       .  S
C957        H968   1.110       .  S
C957        H969   1.110       .  S
C959        H970   1.111       .  S
C959        H971   1.105       .  S
C959        H972   1.110       .  S
C973        C974   1.404       .  A
C973        C978   1.410       .  A
C973        H983   1.083       .  S
C974        C979   1.480       .  S
C974        C975   1.406       .  A
C975        C976   1.396       .  A
C975        C980   1.509   1_545  S
C976        C977   1.411       .  A
C976        H981   1.083       .  S
C977        C978   1.418       .  A
C978        C982   1.504       .  S
C979        C984   1.409       .  A
C979        C988   1.402       .  A
C980        H996   1.109       .  S
C980        H997   1.111       .  S
C980        H998   1.111       .  S
C982        H993   1.111       .  S
C982        H994   1.110       .  S
C982        H995   1.109       .  S
C984        C985   1.402       .  A
C984        C989   1.507       .  S
C985        C986   1.408       .  A
C985        H990   1.084       .  S
C986        C987   1.416       .  A
C987        C988   1.404       .  A
C987        C991   1.508       .  S
C988        H992   1.084       .  S
C989        H999   1.111       .  S
C989       H1000   1.110       .  S
C989       H1001   1.110       .  S
C991       H1002   1.111       .  S
C991       H1003   1.110       .  S
C991       H1004   1.110   1_545  S
C1005      C1006   1.400       .  A
C1005      C1010   1.402       .  A
C1005      H1015   1.083       .  S
C1006      C1011   1.478       .  S
C1006      C1007   1.411       .  A
C1007      C1008   1.403       .  A
C1007      C1012   1.507       .  S
C1008      C1009   1.402       .  A
C1008      H1013   1.077   1_565  S
C1009      C1010   1.415       .  A
C1010      C1014   1.507       .  S
C1011      C1016   1.408       .  A
C1011      C1020   1.401       .  A
C1012      H1028   1.110       .  S
C1012      H1029   1.110       .  S
C1012      H1030   1.111       .  S
C1014      H1025   1.110       .  S
C1014      H1026   1.110       .  S
C1014      H1027   1.109       .  S
C1016      C1017   1.405       .  A
C1016      C1021   1.505       .  S
C1017      C1018   1.405       .  A
C1017      H1022   1.084       .  S
C1018      C1019   1.415       .  A
C1019      C1020   1.401       .  A
C1019      C1023   1.509       .  S
C1020      H1024   1.084       .  S
C1021      H1031   1.111       .  S
C1021      H1032   1.110       .  S
C1021      H1033   1.110       .  S
C1023      H1034   1.110       .  S
C1023      H1035   1.106       .  S
C1023      H1036   1.111       .  S
C1037      C1038   1.396       .  A
C1037      C1042   1.400       .  A
C1037      H1047   1.085       .  S
C1038      C1043   1.478       .  S
C1038      C1039   1.413       .  A
C1039      C1040   1.405       .  A
C1039      C1044   1.506       .  S
C1040      C1041   1.402       .  A
C1040      H1045   1.084       .  S
C1041      C1042   1.417       .  A
C1042      C1046   1.505       .  S
C1043      C1048   1.410       .  A
C1043      C1052   1.401       .  A
C1044      H1060   1.110       .  S
C1044      H1061   1.110       .  S
C1044      H1062   1.111       .  S
C1046      H1057   1.109       .  S
C1046      H1058   1.111       .  S
C1046      H1059   1.107       .  S
C1048      C1049   1.400       .  A
C1048      C1053   1.507       .  S
C1049      C1050   1.404       .  A
C1049      H1054   1.085       .  S
C1050      C1051   1.416       .  A
C1051      C1052   1.404       .  A
C1051      C1055   1.508       .  S
C1052      H1056   1.084       .  S
C1053      H1063   1.111       .  S
C1053      H1064   1.110       .  S
C1053      H1065   1.110       .  S
C1055      H1066   1.110       .  S
C1055      H1067   1.106       .  S
C1055      H1068   1.111       .  S
C1069      C1070   1.398       .  A
C1069      C1074   1.400       .  A
C1069      H1079   1.084       .  S
C1070      C1075   1.480       .  S
C1070      C1071   1.409       .  A
C1071      C1072   1.407       .  A
C1071      C1076   1.505       .  S
C1072      C1073   1.408       .  A
C1072      H1077   1.084       .  S
C1073      C1074   1.422       .  A
C1074      C1078   1.510       .  S
C1075      C1080   1.411       .  A
C1075      C1084   1.402       .  A
C1076      H1092   1.110       .  S
C1076      H1093   1.110       .  S
C1076      H1094   1.111       .  S
C1078      H1089   1.110       .  S
C1078      H1090   1.111       .  S
C1078      H1091   1.109       .  S
C1080      C1081   1.401       .  A
C1080      C1085   1.507       .  S
C1081      C1082   1.402       .  A
C1081      H1086   1.085       .  S
C1082      C1083   1.415       .  A
C1083      C1084   1.404       .  A
C1083      C1087   1.508       .  S
C1084      H1088   1.085       .  S
C1085      H1095   1.111       .  S
C1085      H1096   1.109       .  S
C1085      H1097   1.110       .  S
C1087      H1098   1.111       .  S
C1087      H1099   1.107       .  S
C1087      H1100   1.110       .  S
C1101      C1102   1.401       .  A
C1101      C1106   1.404       .  A
C1101      H1111   1.085       .  S
C1102      C1107   1.479       .  S
C1102      C1103   1.410       .  A
C1103      C1104   1.401       .  A
C1103      C1108   1.508       .  S
C1104      C1105   1.404       .  A
C1104      H1109   1.085       .  S
C1105      C1106   1.417       .  A
C1106      C1110   1.508       .  S
C1107      C1112   1.405       .  A
C1107      C1116   1.399       .  A
C1108      H1124   1.110       .  S
C1108      H1125   1.109       .  S
C1108      H1126   1.111       .  S
C1110      H1121   1.110       .  S
C1110      H1122   1.111       .  S
C1110      H1123   1.106       .  S
C1112      C1113   1.403       .  A
C1112      C1117   1.506       .  S
C1113      C1114   1.412       .  A
C1113      H1118   1.085       .  S
C1114      C1115   1.423       .  A
C1115      C1116   1.404       .  A
C1115      C1119   1.508       .  S
C1116      H1120   1.086       .  S
C1117      H1127   1.111       .  S
C1117      H1128   1.110       .  S
C1117      H1129   1.110       .  S
C1119      H1130   1.110       .  S
C1119      H1131   1.110       .  S
C1119      H1132   1.111       .  S
C1133      C1134   1.402       .  A
C1133      C1138   1.407       .  A
C1133      H1143   1.083       .  S
C1134      C1139   1.484       .  S
C1134      C1135   1.410       .  A
C1135      C1136   1.401       .  A
C1135      C1140   1.508       .  S
C1136      C1137   1.406       .  A
C1136      H1141   1.084       .  S
C1137      C1138   1.418       .  A
C1138      C1142   1.505       .  S
C1139      C1144   1.408       .  A
C1139      C1148   1.399       .  A
C1140      H1156   1.109       .  S
C1140      H1157   1.110       .  S
C1140      H1158   1.111       .  S
C1142      H1153   1.111       .  S
C1142      H1154   1.110       .  S
C1142      H1155   1.110       .  S
C1144      C1145   1.404       .  A
C1144      C1149   1.506       .  S
C1145      C1146   1.409       .  A
C1145      H1150   1.086       .  S
C1146      C1147   1.424       .  A
C1147      C1148   1.404       .  A
C1147      C1151   1.509   1_455  S
C1148      H1152   1.087       .  S
C1149      H1159   1.111       .  S
C1149      H1160   1.110       .  S
C1149      H1161   1.110       .  S
C1151      H1162   1.111       .  S
C1151      H1163   1.111       .  S
C1151      H1164   1.110       .  S
C1165      C1166   1.400       .  A
C1165      C1170   1.404       .  A
C1165      H1175   1.085       .  S
C1166      C1171   1.477       .  S
C1166      C1167   1.406       .  A
C1167      C1168   1.401       .  A
C1167      C1172   1.507       .  S
C1168      C1169   1.410       .  A
C1168      H1173   1.084       .  S
C1169      C1170   1.420       .  A
C1170      C1174   1.509   1_655  S
C1171      C1176   1.411       .  A
C1171      C1180   1.400       .  A
C1172      H1188   1.110       .  S
C1172      H1189   1.110       .  S
C1172      H1190   1.111       .  S
C1174      H1185   1.111       .  S
C1174      H1186   1.109       .  S
C1174      H1187   1.111       .  S
C1176      C1177   1.405       .  A
C1176      C1181   1.505       .  S
C1177      C1178   1.403       .  A
C1177      H1182   1.084       .  S
C1178      C1179   1.414       .  A
C1179      C1180   1.398       .  A
C1179      C1183   1.510       .  S
C1180      H1184   1.084       .  S
C1181      H1191   1.111       .  S
C1181      H1192   1.110       .  S
C1181      H1193   1.110       .  S
C1183      H1194   1.111       .  S
C1183      H1195   1.109       .  S
C1183      H1196   1.110       .  S
C1197      C1198   1.402       .  A
C1197      C1202   1.403       .  A
C1197      H1207   1.084       .  S
C1198      C1203   1.486       .  S
C1198      C1199   1.414       .  A
C1199      C1200   1.405       .  A
C1199      C1204   1.507       .  S
C1200      C1201   1.402       .  A
C1200      H1205   1.085       .  S
C1201      C1202   1.413       .  A
C1202      C1206   1.506       .  S
C1203      C1208   1.412       .  A
C1203      C1212   1.398       .  A
C1204      H1220   1.109       .  S
C1204      H1221   1.110       .  S
C1204      H1222   1.111       .  S
C1206      H1217   1.110       .  S
C1206      H1218   1.110       .  S
C1206      H1219   1.109       .  S
C1208      C1209   1.405       .  A
C1208      C1213   1.507       .  S
C1209      C1210   1.407       .  A
C1209      H1214   1.083       .  S
C1210      C1211   1.426       .  A
C1211      C1212   1.405       .  A
C1211      C1215   1.509       .  S
C1212      H1216   1.084       .  S
C1213      H1223   1.111       .  S
C1213      H1224   1.109       .  S
C1213      H1225   1.111       .  S
C1215      H1226   1.111       .  S
C1215      H1227   1.108       .  S
C1215      H1228   1.110       .  S
C1229      C1230   1.398       .  A
C1229      C1234   1.400       .  A
C1229      H1239   1.085       .  S
C1230      C1235   1.472       .  S
C1230      C1231   1.409       .  A
C1231      C1232   1.401       .  A
C1231      C1236   1.507       .  S
C1232      C1233   1.405       .  A
C1232      H1237   1.084       .  S
C1233      C1234   1.419       .  A
C1234      C1238   1.510       .  S
C1235      C1240   1.406       .  A
C1235      C1244   1.396       .  A
C1236      H1252   1.110       .  S
C1236      H1253   1.110       .  S
C1236      H1254   1.111       .  S
C1238      H1249   1.111       .  S
C1238      H1250   1.109       .  S
C1238      H1251   1.111       .  S
C1240      C1241   1.402       .  A
C1240      C1245   1.506       .  S
C1241      C1242   1.411       .  A
C1241      H1246   1.083       .  S
C1242      C1243   1.424       .  A
C1243      C1244   1.399       .  A
C1243      C1247   1.510       .  S
C1244      H1248   1.084       .  S
C1245      H1255   1.111       .  S
C1245      H1256   1.110       .  S
C1245      H1257   1.110       .  S
C1247      H1258   1.110       .  S
C1247      H1259   1.110       .  S
C1247      H1260   1.111       .  S
C1261      C1262   1.401       .  A
C1261      C1266   1.401       .  A
C1261      H1271   1.086       .  S
C1262      C1267   1.479       .  S
C1262      C1263   1.410       .  A
C1263      C1264   1.404       .  A
C1263      C1268   1.506       .  S
C1264      C1265   1.404       .  A
C1264      H1269   1.085       .  S
C1265      C1266   1.413       .  A
C1266      C1270   1.508       .  S
C1267      C1272   1.413       .  A
C1267      C1276   1.398       .  A
C1268      H1284   1.110       .  S
C1268      H1285   1.109       .  S
C1268      H1286   1.111       .  S
C1270      H1281   1.110       .  S
C1270      H1282   1.110       .  S
C1270      H1283   1.108       .  S
C1272      C1273   1.404       .  A
C1272      C1277   1.507       .  S
C1273      C1274   1.403       .  A
C1273      H1278   1.084       .  S
C1274      C1275   1.418       .  A
C1275      C1276   1.403       .  A
C1275      C1279   1.508       .  S
C1276      H1280   1.083       .  S
C1277      H1287   1.111       .  S
C1277      H1288   1.110       .  S
C1277      H1289   1.109       .  S
C1279      H1290   1.109       .  S
C1279      H1291   1.110       .  S
C1279      H1292   1.111       .  S
C1293      C1294   1.397       .  A
C1293      C1298   1.403       .  A
C1293      H1303   1.084       .  S
C1294      C1299   1.484       .  S
C1294      C1295   1.412       .  A
C1295      C1296   1.408       .  A
C1295      C1300   1.507       .  S
C1296      C1297   1.408       .  A
C1296      H1301   1.083       .  S
C1297      C1298   1.424       .  A
C1298      C1302   1.508       .  S
C1299      C1304   1.413       .  A
C1299      C1308   1.400       .  A
C1300      H1316   1.110       .  S
C1300      H1317   1.108       .  S
C1300      H1318   1.111       .  S
C1302      H1313   1.111       .  S
C1302      H1314   1.110       .  S
C1302      H1315   1.102       .  S
C1304      C1305   1.410       .  A
C1304      C1309   1.506       .  S
C1305      C1306   1.406       .  A
C1305      H1310   1.085       .  S
C1306      C1307   1.416       .  A
C1307      C1308   1.399       .  A
C1307      C1311   1.510       .  S
C1308      H1312   1.085       .  S
C1309      H1319   1.111       .  S
C1309      H1320   1.110       .  S
C1309      H1321   1.108       .  S
C1311      H1322   1.111       .  S
C1311      H1323   1.109       .  S
C1311      H1324   1.110       .  S
C1325      C1326   1.402       .  A
C1325      C1330   1.404       .  A
C1325      H1335   1.089       .  S
C1326      C1331   1.477       .  S
C1326      C1327   1.408       .  A
C1327      C1328   1.399       .  A
C1327      C1332   1.507       .  S
C1328      C1329   1.405       .  A
C1328      H1333   1.088       .  S
C1329      C1330   1.414       .  A
C1330      C1334   1.507       .  S
C1331      C1336   1.410       .  A
C1331      C1340   1.396       .  A
C1332      H1348   1.110       .  S
C1332      H1349   1.109       .  S
C1332      H1350   1.111       .  S
C1334      H1345   1.111       .  S
C1334      H1346   1.111       .  S
C1334      H1347   1.109       .  S
C1336      C1337   1.402       .  A
C1336      C1341   1.508       .  S
C1337      C1338   1.407       .  A
C1337      H1342   1.085   1_655  S
C1338      C1339   1.425       .  A
C1339      C1340   1.403       .  A
C1339      C1343   1.509       .  S
C1340      H1344   1.087       .  S
C1341      H1351   1.111   1_655  S
C1341      H1352   1.110       .  S
C1341      H1353   1.110       .  S
C1343      H1354   1.109       .  S
C1343      H1355   1.109       .  S
C1343      H1356   1.111       .  S
C1357      C1358   1.400       .  A
C1357      C1362   1.403       .  A
C1357      H1367   1.085       .  S
C1358      C1363   1.483       .  S
C1358      C1359   1.412       .  A
C1359      C1360   1.406       .  A
C1359      C1364   1.506       .  S
C1360      C1361   1.404       .  A
C1360      H1365   1.084   1_455  S
C1361      C1362   1.418       .  A
C1362      C1366   1.509       .  S
C1363      C1368   1.409       .  A
C1363      C1372   1.399       .  A
C1364      H1380   1.110       .  S
C1364      H1381   1.110       .  S
C1364      H1382   1.111   1_455  S
C1366      H1377   1.110       .  S
C1366      H1378   1.111       .  S
C1366      H1379   1.109       .  S
C1368      C1369   1.407       .  A
C1368      C1373   1.505       .  S
C1369      C1370   1.409       .  A
C1369      H1374   1.084       .  S
C1370      C1371   1.421       .  A
C1371      C1372   1.403       .  A
C1371      C1375   1.509       .  S
C1372      H1376   1.084       .  S
C1373      H1383   1.111       .  S
C1373      H1384   1.110       .  S
C1373      H1385   1.110       .  S
C1375      H1386   1.110       .  S
C1375      H1387   1.110       .  S
C1375      H1388   1.111       .  S
C1389      C1390   1.398       .  A
C1389      C1394   1.400       .  A
C1389      H1399   1.086       .  S
C1390      C1395   1.474       .  S
C1390      C1391   1.409       .  A
C1391      C1392   1.402       .  A
C1391      C1396   1.506   1_655  S
C1392      C1393   1.405       .  A
C1392      H1397   1.085       .  S
C1393      C1394   1.417       .  A
C1394      C1398   1.508       .  S
C1395      C1400   1.408       .  A
C1395      C1404   1.398       .  A
C1396      H1412   1.110       .  S
C1396      H1413   1.110       .  S
C1396      H1414   1.111       .  S
C1398      H1409   1.109       .  S
C1398      H1410   1.111       .  S
C1398      H1411   1.109       .  S
C1400      C1401   1.400       .  A
C1400      C1405   1.507       .  S
C1401      C1402   1.407       .  A
C1401      H1406   1.086       .  S
C1402      C1403   1.420       .  A
C1403      C1404   1.402       .  A
C1403      C1407   1.508   1_655  S
C1404      H1408   1.087       .  S
C1405      H1415   1.111       .  S
C1405      H1416   1.110       .  S
C1405      H1417   1.111       .  S
C1407      H1418   1.111       .  S
C1407      H1419   1.109   1_455  S
C1407      H1420   1.109       .  S
C1421      C1422   1.403       .  A
C1421      C1426   1.404       .  A
C1421      H1431   1.083       .  S
C1422      C1427   1.481       .  S
C1422      C1423   1.409       .  A
C1423      C1424   1.402       .  A
C1423      C1428   1.507       .  S
C1424      C1425   1.405       .  A
C1424      H1429   1.083       .  S
C1425      C1426   1.415       .  A
C1426      C1430   1.508       .  S
C1427      C1432   1.409       .  A
C1427      C1436   1.403       .  A
C1428      H1444   1.109       .  S
C1428      H1445   1.110       .  S
C1428      H1446   1.111       .  S
C1430      H1441   1.110       .  S
C1430      H1442   1.110       .  S
C1430      H1443   1.106       .  S
C1432      C1433   1.404       .  A
C1432      C1437   1.506       .  S
C1433      C1434   1.406       .  A
C1433      H1438   1.082       .  S
C1434      C1435   1.413       .  A
C1435      C1436   1.403       .  A
C1435      C1439   1.507       .  S
C1436      H1440   1.083       .  S
C1437      H1447   1.111       .  S
C1437      H1448   1.109       .  S
C1437      H1449   1.111       .  S
C1439      H1450   1.111       .  S
C1439      H1451   1.111       .  S
C1439      H1452   1.109       .  S
C1453      C1454   1.399       .  A
C1453      C1458   1.405       .  A
C1453      H1463   1.086       .  S
C1454      C1459   1.483       .  S
C1454      C1455   1.411       .  A
C1455      C1456   1.404       .  A
C1455      C1460   1.507       .  S
C1456      C1457   1.405       .  A
C1456      H1461   1.086       .  S
C1457      C1458   1.419       .  A
C1458      C1462   1.508       .  S
C1459      C1464   1.410       .  A
C1459      C1468   1.402       .  A
C1460      H1476   1.110       .  S
C1460      H1477   1.110       .  S
C1460      H1478   1.111       .  S
C1462      H1473   1.109       .  S
C1462      H1474   1.111       .  S
C1462      H1475   1.110       .  S
C1464      C1465   1.400       .  A
C1464      C1469   1.508       .  S
C1465      C1466   1.405       .  A
C1465      H1470   1.085   1_545  S
C1466      C1467   1.420       .  A
C1467      C1468   1.408       .  A
C1467      C1471   1.509       .  S
C1468      H1472   1.084       .  S
C1469      H1479   1.111       .  S
C1469      H1480   1.110       .  S
C1469      H1481   1.110       .  S
C1471      H1482   1.110       .  S
C1471      H1483   1.104       .  S
C1471      H1484   1.111       .  S
C1485      C1486   1.401       .  A
C1485      C1490   1.402       .  A
C1485      H1495   1.084       .  S
C1486      C1491   1.481       .  S
C1486      C1487   1.412       .  A
C1487      C1488   1.405       .  A
C1487      C1492   1.506       .  S
C1488      C1489   1.403       .  A
C1488      H1493   1.084       .  S
C1489      C1490   1.414       .  A
C1490      C1494   1.507       .  S
C1491      C1496   1.412       .  A
C1491      C1500   1.400       .  A
C1492      H1508   1.110       .  S
C1492      H1509   1.110       .  S
C1492      H1510   1.111       .  S
C1494      H1505   1.110       .  S
C1494      H1506   1.110       .  S
C1494      H1507   1.109       .  S
C1496      C1497   1.401       .  A
C1496      C1501   1.507       .  S
C1497      C1498   1.403       .  A
C1497      H1502   1.085       .  S
C1498      C1499   1.418       .  A
C1499      C1500   1.406       .  A
C1499      C1503   1.508       .  S
C1500      H1504   1.085       .  S
C1501      H1511   1.111       .  S
C1501      H1512   1.110       .  S
C1501      H1513   1.110       .  S
C1503      H1514   1.111       .  S
C1503      H1515   1.110       .  S
C1503      H1516   1.109       .  S
C1517      C1518   1.401       .  A
C1517      C1522   1.400       .  A
C1517      H1527   1.085       .  S
C1518      C1523   1.476       .  S
C1518      C1519   1.410       .  A
C1519      C1520   1.403       .  A
C1519      C1524   1.506       .  S
C1520      C1521   1.402       .  A
C1520      H1525   1.084       .  S
C1521      C1522   1.412       .  A
C1522      C1526   1.507       .  S
C1523      C1528   1.409       .  A
C1523      C1532   1.401       .  A
C1524      H1540   1.110       .  S
C1524      H1541   1.110       .  S
C1524      H1542   1.111       .  S
C1526      H1537   1.110       .  S
C1526      H1538   1.110       .  S
C1526      H1539   1.107       .  S
C1528      C1529   1.400       .  A
C1528      C1533   1.507       .  S
C1529      C1530   1.403       .  A
C1529      H1534   1.084       .  S
C1530      C1531   1.416       .  A
C1531      C1532   1.403       .  A
C1531      C1535   1.508       .  S
C1532      H1536   1.083       .  S
C1533      H1543   1.111       .  S
C1533      H1544   1.110       .  S
C1533      H1545   1.110       .  S
C1535      H1546   1.111       .  S
C1535      H1547   1.107       .  S
C1535      H1548   1.110       .  S
C1549      C1550   1.401       .  A
C1549      C1554   1.400       .  A
C1549      H1559   1.083       .  S
C1550      C1555   1.471       .  S
C1550      C1551   1.409       .  A
C1551      C1552   1.399       .  A
C1551      C1556   1.506       .  S
C1552      C1553   1.401       .  A
C1552      H1557   1.082       .  S
C1553      C1554   1.412       .  A
C1554      C1558   1.507       .  S
C1555      C1560   1.407       .  A
C1555      C1564   1.399       .  A
C1556      H1572   1.110       .  S
C1556      H1573   1.111       .  S
C1556      H1574   1.111       .  S
C1558      H1569   1.110       .  S
C1558      H1570   1.110       .  S
C1558      H1571   1.107       .  S
C1560      C1561   1.398       .  A
C1560      C1565   1.507       .  S
C1561      C1562   1.407       .  A
C1561      H1566   1.086       .  S
C1562      C1563   1.419       .  A
C1563      C1564   1.401       .  A
C1563      C1567   1.510       .  S
C1564      H1568   1.086       .  S
C1565      H1575   1.111       .  S
C1565      H1576   1.110       .  S
C1565      H1577   1.110       .  S
C1567      H1578   1.111       .  S
C1567      H1579   1.110       .  S
C1567      H1580   1.110   1_554  S
C1581      C1582   1.402       .  A
C1581      C1586   1.407       .  A
C1581      H1591   1.085   1_554  S
C1582      C1587   1.484       .  S
C1582      C1583   1.410       .  A
C1583      C1584   1.404       .  A
C1583      C1588   1.507       .  S
C1584      C1585   1.406       .  A
C1584      H1589   1.084       .  S
C1585      C1586   1.415       .  A
C1586      C1590   1.504   1_655  S
C1587      C1592   1.410   1_554  A
C1587      C1596   1.400       .  A
C1588      H1604   1.110       .  S
C1588      H1605   1.110       .  S
C1588      H1606   1.111       .  S
C1590      H1601   1.110       .  S
C1590      H1602   1.111   1_554  S
C1590      H1603   1.110       .  S
C1592      C1593   1.402       .  A
C1592      C1597   1.508       .  S
C1593      C1594   1.407       .  A
C1593      H1598   1.083       .  S
C1594      C1595   1.423       .  A
C1595      C1596   1.409   1_556  A
C1595      C1599   1.506       .  S
C1596      H1600   1.083       .  S
C1597      H1607   1.111       .  S
C1597      H1608   1.110       .  S
C1597      H1609   1.110   1_556  S
C1599      H1610   1.109       .  S
C1599      H1611   1.107       .  S
C1599      H1612   1.111   1_556  S
C1613      C1614   1.401       .  A
C1613      C1618   1.403       .  A
C1613      H1623   1.085       .  S
C1614      C1619   1.479       .  S
C1614      C1615   1.409       .  A
C1615      C1616   1.402       .  A
C1615      C1620   1.506       .  S
C1616      C1617   1.404       .  A
C1616      H1621   1.085       .  S
C1617      C1618   1.417       .  A
C1618      C1622   1.508   1_456  S
C1619      C1624   1.409       .  A
C1619      C1628   1.400       .  A
C1620      H1636   1.110       .  S
C1620      H1637   1.110       .  S
C1620      H1638   1.111       .  S
C1622      H1633   1.110   1_554  S
C1622      H1634   1.111   1_554  S
C1622      H1635   1.106   1_655  S
C1624      C1625   1.404       .  A
C1624      C1629   1.506       .  S
C1625      C1626   1.406       .  A
C1625      H1630   1.084       .  S
C1626      C1627   1.419       .  A
C1627      C1628   1.402       .  A
C1627      C1631   1.509       .  S
C1628      H1632   1.085       .  S
C1629      H1639   1.111   1_455  S
C1629      H1640   1.110   1_455  S
C1629      H1641   1.110       .  S
C1631      H1642   1.110       .  S
C1631      H1643   1.106       .  S
C1631      H1644   1.111       .  S
C1645      C1646   1.400       .  A
C1645      C1650   1.408       .  A
C1645      H1655   1.086       .  S
C1646      C1651   1.488       .  S
C1646      C1647   1.408       .  A
C1647      C1648   1.407       .  A
C1647      C1652   1.506       .  S
C1648      C1649   1.412       .  A
C1648      H1653   1.085       .  S
C1649      C1650   1.424       .  A
C1650      C1654   1.508   1_455  S
C1651      C1656   1.413       .  A
C1651      C1660   1.401       .  A
C1652      H1668   1.110       .  S
C1652      H1669   1.110       .  S
C1652      H1670   1.111       .  S
C1654      H1665   1.111       .  S
C1654      H1666   1.110       .  S
C1654      H1667   1.110       .  S
C1656      C1657   1.408       .  A
C1656      C1661   1.506       .  S
C1657      C1658   1.404       .  A
C1657      H1662   1.082       .  S
C1658      C1659   1.417       .  A
C1659      C1660   1.406       .  A
C1659      C1663   1.508       .  S
C1660      H1664   1.082       .  S
C1661      H1671   1.111       .  S
C1661      H1672   1.110       .  S
C1661      H1673   1.110       .  S
C1663      H1674   1.111       .  S
C1663      H1675   1.109       .  S
C1663      H1676   1.111       .  S
C1677      C1678   1.398       .  A
C1677      C1682   1.400       .  A
C1677      H1687   1.088       .  S
C1678      C1683   1.477   1_655  S
C1678      C1679   1.408       .  A
C1679      C1680   1.404       .  A
C1679      C1684   1.506   1_655  S
C1680      C1681   1.409       .  A
C1680      H1685   1.086       .  S
C1681      C1682   1.420       .  A
C1682      C1686   1.508       .  S
C1683      C1688   1.409       .  A
C1683      C1692   1.401   1_455  A
C1684      H1700   1.110       .  S
C1684      H1701   1.110       .  S
C1684      H1702   1.111       .  S
C1686      H1697   1.109       .  S
C1686      H1698   1.111       .  S
C1686      H1699   1.109       .  S
C1688      C1689   1.400       .  A
C1688      C1693   1.507       .  S
C1689      C1690   1.404       .  A
C1689      H1694   1.083       .  S
C1690      C1691   1.418   1_455  A
C1691      C1692   1.405       .  A
C1691      C1695   1.507       .  S
C1692      H1696   1.082       .  S
C1693      H1703   1.111       .  S
C1693      H1704   1.109       .  S
C1693      H1705   1.111       .  S
C1695      H1706   1.111       .  S
C1695      H1707   1.110       .  S
C1695      H1708   1.110       .  S
C1709      C1710   1.405       .  A
C1709      C1714   1.408       .  A
C1709      H1719   1.084       .  S
C1710      C1715   1.488       .  S
C1710      C1711   1.411       .  A
C1711      C1712   1.404       .  A
C1711      C1716   1.507       .  S
C1712      C1713   1.406       .  A
C1712      H1717   1.085       .  S
C1713      C1714   1.414       .  A
C1714      C1718   1.505       .  S
C1715      C1720   1.411       .  A
C1715      C1724   1.402       .  A
C1716      H1732   1.109       .  S
C1716      H1733   1.110       .  S
C1716      H1734   1.111       .  S
C1718      H1729   1.108       .  S
C1718      H1730   1.111       .  S
C1718      H1731   1.109       .  S
C1720      C1721   1.408       .  A
C1720      C1725   1.506       .  S
C1721      C1722   1.406       .  A
C1721      H1726   1.083       .  S
C1722      C1723   1.418       .  A
C1723      C1724   1.404       .  A
C1723      C1727   1.509       .  S
C1724      H1728   1.084       .  S
C1725      H1735   1.111       .  S
C1725      H1736   1.109       .  S
C1725      H1737   1.111       .  S
C1727      H1738   1.111       .  S
C1727      H1739   1.105       .  S
C1727      H1740   1.110       .  S
C1741      C1742   1.402       .  A
C1741      C1746   1.405   1_556  A
C1741      H1751   1.087       .  S
C1742      C1747   1.484       .  S
C1742      C1743   1.412   1_556  A
C1743      C1744   1.405       .  A
C1743      C1748   1.508       .  S
C1744      C1745   1.405       .  A
C1744      H1749   1.087       .  S
C1745      C1746   1.416       .  A
C1746      C1750   1.506   1_554  S
C1747      C1752   1.411       .  A
C1747      C1756   1.395       .  A
C1748      H1764   1.111       .  S
C1748      H1765   1.108       .  S
C1748      H1766   1.111       .  S
C1750      H1761   1.110       .  S
C1750      H1762   1.110       .  S
C1750      H1763   1.106   1_556  S
C1752      C1753   1.409       .  A
C1752      C1757   1.506       .  S
C1753      C1754   1.410       .  A
C1753      H1758   1.082       .  S
C1754      C1755   1.428       .  A
C1755      C1756   1.401       .  A
C1755      C1759   1.511       .  S
C1756      H1760   1.083       .  S
C1757      H1767   1.111       .  S
C1757      H1768   1.110       .  S
C1757      H1769   1.108   1_556  S
C1759      H1770   1.111       .  S
C1759      H1771   1.110       .  S
C1759      H1772   1.111       .  S
C1773      C1774   1.400       .  A
C1773      C1778   1.403       .  A
C1773      H1783   1.085       .  S
C1774      C1779   1.483       .  S
C1774      C1775   1.413       .  A
C1775      C1776   1.406       .  A
C1775      C1780   1.507       .  S
C1776      C1777   1.403       .  A
C1776      H1781   1.083       .  S
C1777      C1778   1.418       .  A
C1778      C1782   1.509       .  S
C1779      C1784   1.410       .  A
C1779      C1788   1.403       .  A
C1780      H1796   1.110       .  S
C1780      H1797   1.108       .  S
C1780      H1798   1.111       .  S
C1782      H1793   1.110       .  S
C1782      H1794   1.110       .  S
C1782      H1795   1.108       .  S
C1784      C1785   1.403       .  A
C1784      C1789   1.506       .  S
C1785      C1786   1.402       .  A
C1785      H1790   1.087       .  S
C1786      C1787   1.413       .  A
C1787      C1788   1.405       .  A
C1787      C1791   1.507       .  S
C1788      H1792   1.086       .  S
C1789      H1799   1.111       .  S
C1789      H1800   1.110       .  S
C1789      H1801   1.108       .  S
C1791      H1802   1.111       .  S
C1791      H1803   1.110       .  S
C1791      H1804   1.111       .  S
C1805      C1806   1.400   1_565  A
C1805      C1810   1.399       .  A
C1805      H1815   1.085       .  S
C1806      C1811   1.472       .  S
C1806      C1807   1.411       .  A
C1807      C1808   1.401       .  A
C1807      C1812   1.507       .  S
C1808      C1809   1.401       .  A
C1808      H1813   1.084       .  S
C1809      C1810   1.414   1_545  A
C1810      C1814   1.508       .  S
C1811      C1816   1.408       .  A
C1811      C1820   1.399       .  A
C1812      H1828   1.110       .  S
C1812      H1829   1.109       .  S
C1812      H1830   1.111       .  S
C1814      H1825   1.110       .  S
C1814      H1826   1.110       .  S
C1814      H1827   1.108       .  S
C1816      C1817   1.399       .  A
C1816      C1821   1.508       .  S
C1817      C1818   1.407       .  A
C1817      H1822   1.084       .  S
C1818      C1819   1.417       .  A
C1819      C1820   1.403       .  A
C1819      C1823   1.505       .  S
C1820      H1824   1.084       .  S
C1821      H1831   1.111       .  S
C1821      H1832   1.110       .  S
C1821      H1833   1.109       .  S
C1823      H1834   1.110   1_545  S
C1823      H1835   1.109       .  S
C1823      H1836   1.111   1_545  S
C1837      C1838   1.400       .  A
C1837      C1842   1.403       .  A
C1837      H1847   1.085       .  S
C1838      C1843   1.483       .  S
C1838      C1839   1.413       .  A
C1839      C1840   1.406       .  A
C1839      C1844   1.506       .  S
C1840      C1841   1.403       .  A
C1840      H1845   1.085       .  S
C1841      C1842   1.416       .  A
C1842      C1846   1.507       .  S
C1843      C1848   1.409       .  A
C1843      C1852   1.403       .  A
C1844      H1860   1.110       .  S
C1844      H1861   1.110       .  S
C1844      H1862   1.111       .  S
C1846      H1857   1.110       .  S
C1846      H1858   1.110       .  S
C1846      H1859   1.108       .  S
C1848      C1849   1.405       .  A
C1848      C1853   1.506       .  S
C1849      C1850   1.406       .  A
C1849      H1854   1.085       .  S
C1850      C1851   1.415       .  A
C1851      C1852   1.405       .  A
C1851      C1855   1.507       .  S
C1852      H1856   1.085       .  S
C1853      H1863   1.111       .  S
C1853      H1864   1.110       .  S
C1853      H1865   1.110       .  S
C1855      H1866   1.110       .  S
C1855      H1867   1.106       .  S
C1855      H1868   1.111       .  S
C1869      C1870   1.403       .  A
C1869      C1874   1.407       .  A
C1869      H1879   1.083   1_545  S
C1870      C1875   1.489       .  S
C1870      C1871   1.411       .  A
C1871      C1872   1.406       .  A
C1871      C1876   1.506       .  S
C1872      C1873   1.407       .  A
C1872      H1877   1.083       .  S
C1873      C1874   1.417       .  A
C1874      C1878   1.507   1_545  S
C1875      C1880   1.414       .  A
C1875      C1884   1.402       .  A
C1876      H1892   1.109       .  S
C1876      H1893   1.111       .  S
C1876      H1894   1.111       .  S
C1878      H1889   1.110       .  S
C1878      H1890   1.111       .  S
C1878      H1891   1.111       .  S
C1880      C1881   1.409       .  A
C1880      C1885   1.506       .  S
C1881      C1882   1.404       .  A
C1881      H1886   1.085       .  S
C1882      C1883   1.414       .  A
C1883      C1884   1.402       .  A
C1883      C1887   1.509       .  S
C1884      H1888   1.085       .  S
C1885      H1895   1.111       .  S
C1885      H1896   1.110       .  S
C1885      H1897   1.110       .  S
C1887      H1898   1.110       .  S
C1887      H1899   1.109       .  S
C1887      H1900   1.110       .  S
C1901      C1902   1.401       .  A
C1901      C1906   1.406       .  A
C1901      H1911   1.086       .  S
C1902      C1907   1.486       .  S
C1902      C1903   1.408       .  A
C1903      C1904   1.405       .  A
C1903      C1908   1.506       .  S
C1904      C1905   1.410       .  A
C1904      H1909   1.085       .  S
C1905      C1906   1.423       .  A
C1906      C1910   1.510   1_565  S
C1907      C1912   1.412       .  A
C1907      C1916   1.400       .  A
C1908      H1924   1.110       .  S
C1908      H1925   1.110       .  S
C1908      H1926   1.111       .  S
C1910      H1921   1.110       .  S
C1910      H1922   1.111       .  S
C1910      H1923   1.103       .  S
C1912      C1913   1.409       .  A
C1912      C1917   1.505       .  S
C1913      C1914   1.405       .  A
C1913      H1918   1.084       .  S
C1914      C1915   1.418       .  A
C1915      C1916   1.401       .  A
C1915      C1919   1.509       .  S
C1916      H1920   1.085       .  S
C1917      H1927   1.111       .  S
C1917      H1928   1.110       .  S
C1917      H1929   1.110       .  S
C1919      H1930   1.110       .  S
C1919      H1931   1.109       .  S
C1919      H1932   1.110       .  S
C1933      C1934   1.399       .  A
C1933      C1938   1.403       .  A
C1933      H1943   1.084       .  S
C1934      C1939   1.482       .  S
C1934      C1935   1.412       .  A
C1935      C1936   1.404       .  A
C1935      C1940   1.506   1_565  S
C1936      C1937   1.404       .  A
C1936      H1941   1.084   1_565  S
C1937      C1938   1.418       .  A
C1938      C1942   1.507       .  S
C1939      C1944   1.410       .  A
C1939      C1948   1.401       .  A
C1940      H1956   1.110       .  S
C1940      H1957   1.110       .  S
C1940      H1958   1.111       .  S
C1942      H1953   1.111       .  S
C1942      H1954   1.110       .  S
C1942      H1955   1.106       .  S
C1944      C1945   1.406       .  A
C1944      C1949   1.505       .  S
C1945      C1946   1.406       .  A
C1945      H1950   1.084       .  S
C1946      C1947   1.418       .  A
C1947      C1948   1.403       .  A
C1947      C1951   1.510       .  S
C1948      H1952   1.083       .  S
C1949      H1959   1.111       .  S
C1949      H1960   1.110       .  S
C1949      H1961   1.110       .  S
C1951      H1962   1.111       .  S
C1951      H1963   1.111       .  S
C1951      H1964   1.109       .  S
C1965      C1966   1.398       .  A
C1965      C1970   1.403       .  A
C1965      H1975   1.083       .  S
C1966      C1971   1.469   1_545  S
C1966      C1967   1.406       .  A
C1967      C1968   1.395       .  A
C1967      C1972   1.508   1_545  S
C1968      C1969   1.407       .  A
C1968      H1973   1.083       .  S
C1969      C1970   1.422       .  A
C1970      C1974   1.506       .  S
C1971      C1976   1.407   1_565  A
C1971      C1980   1.396       .  A
C1972      H1988   1.110       .  S
C1972      H1989   1.110   1_565  S
C1972      H1990   1.111   1_565  S
C1974      H1985   1.110       .  S
C1974      H1986   1.110       .  S
C1974      H1987   1.109       .  S
C1976      C1977   1.400       .  A
C1976      C1981   1.506       .  S
C1977      C1978   1.406   1_545  A
C1977      H1982   1.083       .  S
C1978      C1979   1.423       .  A
C1979      C1980   1.398       .  A
C1979      C1983   1.511       .  S
C1980      H1984   1.084       .  S
C1981      H1991   1.111       .  S
C1981      H1992   1.110       .  S
C1981      H1993   1.110       .  S
C1983      H1994   1.110       .  S
C1983      H1995   1.110       .  S
C1983      H1996   1.111       .  S
C1997      C1998   1.398   1_556  A
C1997      C2002   1.405       .  A
C1997      H2007   1.085   1_556  S
C1998      C2003   1.484       .  S
C1998      C1999   1.412       .  A
C1999      C2000   1.406   1_554  A
C1999      C2004   1.507       .  S
C2000      C2001   1.405       .  A
C2000      H2005   1.084       .  S
C2001      C2002   1.421       .  A
C2002      C2006   1.506       .  S
C2003      C2008   1.411       .  A
C2003      C2012   1.400       .  A
C2004      H2020   1.110       .  S
C2004      H2021   1.110       .  S
C2004      H2022   1.111       .  S
C2006      H2017   1.111       .  S
C2006      H2018   1.110       .  S
C2006      H2019   1.104       .  S
C2008      C2009   1.408       .  A
C2008      C2013   1.505       .  S
C2009      C2010   1.405       .  A
C2009      H2014   1.085       .  S
C2010      C2011   1.417       .  A
C2011      C2012   1.401       .  A
C2011      C2015   1.508   1_544  S
C2012      H2016   1.086   1_554  S
C2013      H2023   1.111       .  S
C2013      H2024   1.110       .  S
C2013      H2025   1.110       .  S
C2015      H2026   1.111       .  S
C2015      H2027   1.108   1_556  S
C2015      H2028   1.109   1_565  S
C2029      C2030   1.399       .  A
C2029      C2034   1.396       .  A
C2029      H2039   1.085       .  S
C2030      C2035   1.466       .  S
C2030      C2031   1.407       .  A
C2031      C2032   1.399       .  A
C2031      C2036   1.506   1_565  S
C2032      C2033   1.404       .  A
C2032      H2037   1.085   1_556  S
C2033      C2034   1.415       .  A
C2034      C2038   1.509       .  S
C2035      C2040   1.408       .  A
C2035      C2044   1.400       .  A
C2036      H2052   1.110       .  S
C2036      H2053   1.110       .  S
C2036      H2054   1.111       .  S
C2038      H2049   1.111       .  S
C2038      H2050   1.110       .  S
C2038      H2051   1.107   1_556  S
C2040      C2041   1.397       .  A
C2040      C2045   1.507       .  S
C2041      C2042   1.400       .  A
C2041      H2046   1.084       .  S
C2042      C2043   1.412       .  A
C2043      C2044   1.399       .  A
C2043      C2047   1.508       .  S
C2044      H2048   1.084       .  S
C2045      H2055   1.111       .  S
C2045      H2056   1.110       .  S
C2045      H2057   1.110   1_565  S
C2047      H2058   1.111       .  S
C2047      H2059   1.108       .  S
C2047      H2060   1.110       .  S
C2061      C2062   1.399       .  A
C2061      C2066   1.404   1_556  A
C2061      H2071   1.085       .  S
C2062      C2067   1.477       .  S
C2062      C2063   1.405   1_556  A
C2063      C2064   1.402       .  A
C2063      C2068   1.507   1_554  S
C2064      C2065   1.412       .  A
C2064      H2069   1.083       .  S
C2065      C2066   1.423       .  A
C2066      C2070   1.509       .  S
C2067      C2072   1.411       .  A
C2067      C2076   1.399       .  A
C2068      H2084   1.110   1_556  S
C2068      H2085   1.109       .  S
C2068      H2086   1.111   1_556  S
C2070      H2081   1.111       .  S
C2070      H2082   1.110       .  S
C2070      H2083   1.110       .  S
C2072      C2073   1.406       .  A
C2072      C2077   1.506       .  S
C2073      C2074   1.404       .  A
C2073      H2078   1.084       .  S
C2074      C2075   1.415       .  A
C2075      C2076   1.398       .  A
C2075      C2079   1.509   1_456  S
C2076      H2080   1.085   1_556  S
C2077      H2087   1.111       .  S
C2077      H2088   1.110       .  S
C2077      H2089   1.109       .  S
C2079      H2090   1.111       .  S
C2079      H2091   1.109   1_554  S
C2079      H2092   1.110       .  S
C2093      C2094   1.402       .  A
C2093      C2098   1.408       .  A
C2093      H2103   1.083       .  S
C2094      C2099   1.478       .  S
C2094      C2095   1.409       .  A
C2095      C2096   1.398       .  A
C2095      C2100   1.509       .  S
C2096      C2097   1.406       .  A
C2096      H2101   1.086       .  S
C2097      C2098   1.418       .  A
C2098      C2102   1.506       .  S
C2099      C2104   1.410       .  A
C2099      C2108   1.396       .  A
C2100      H2116   1.110       .  S
C2100      H2117   1.109       .  S
C2100      H2118   1.111       .  S
C2102      H2113   1.110       .  S
C2102      H2114   1.111       .  S
C2102      H2115   1.110       .  S
C2104      C2105   1.404       .  A
C2104      C2109   1.507       .  S
C2105      C2106   1.408       .  A
C2105      H2110   1.084       .  S
C2106      C2107   1.424       .  A
C2107      C2108   1.403       .  A
C2107      C2111   1.508       .  S
C2108      H2112   1.085       .  S
C2109      H2119   1.111       .  S
C2109      H2120   1.110       .  S
C2109      H2121   1.109       .  S
C2111      H2122   1.110       .  S
C2111      H2123   1.110       .  S
C2111      H2124   1.111       .  S
