geometry optimzed in LAMMPS
_audit_creation_date              2020-11-30 
_audit_creation_method            'lammps2cif' 
_symmetry_space_group_name_H-M    'P1' 
_symmetry_Int_Tables_number       1 
_symmetry_cell_setting            triclinic 
loop_ 
_symmetry_equiv_pos_as_xyz 
  x,y,z 
_cell_length_a                    33.60302 
_cell_length_b                    33.5830610060402 
_cell_length_c                    38.27648468156959 
_cell_angle_alpha                 89.90515146833721 
_cell_angle_beta                  89.95728705420763 
_cell_angle_gamma                 89.58226948674623 
loop_ 
_atom_site_label 
_atom_site_type_symbol 
_atom_site_fract_x 
_atom_site_fract_y 
_atom_site_fract_z 
_atom_site_charge 
C1          C  0.46832060  0.26273382  0.48667420     0.02200
C2          C  0.47094633  0.25884709  0.02360198     0.02100
C3          C  0.50848894  0.25836462  0.03963064    -0.18400
C4          C  0.54339870  0.26196451  0.01999893     0.02200
C5          C  0.54104712  0.26532219  0.48331698     0.02100
C6          C  0.50362523  0.26572883  0.46708795    -0.18400
H7          H  0.50200629  0.26923657  0.43897156     0.04200
H8          H  0.51050418  0.25675110  0.06787784     0.04200
C9          C  0.21322036  0.57547075  0.49081451     0.02200
C10         C  0.21327608  0.57439488  0.02793543     0.02100
C11         C  0.21470052  0.53741102  0.04511458    -0.18400
C12         C  0.21689909  0.50161248  0.02639924     0.02200
C13         C  0.21650586  0.50257170  0.48945712     0.02100
C14         C  0.21450328  0.53940837  0.47219410    -0.18400
H15         H  0.21580489  0.54003135  0.44389075     0.04200
H16         H  0.21618539  0.53656028  0.07341362     0.04200
C17         C  0.53159607  0.81906105  0.47423340     0.02200
C18         C  0.53193844  0.82530826  0.01089983     0.02100
C19         C  0.49566464  0.82926307  0.02896735    -0.18400
C20         C  0.45908111  0.82469560  0.01188720     0.02200
C21         C  0.45869788  0.81888643  0.47526659     0.02100
C22         C  0.49483106  0.81611631  0.45698402    -0.18400
H23         H  0.49428645  0.81032942  0.42914614     0.04200
H24         H  0.49601001  0.83306557  0.05708183     0.04200
C25         C  0.76861141  0.50613526  0.01557827     0.02200
C26         C  0.76885457  0.50199811  0.47883860     0.02100
C27         C  0.76815924  0.53604197  0.45767091    -0.18400
C28         C  0.76701727  0.57413643  0.47249591     0.02200
C29         C  0.76647461  0.57827648  0.00923292     0.02100
C30         C  0.76799372  0.54426370  0.03036452    -0.18400
H31         H  0.76782548  0.54747299  0.05855538     0.04200
H32         H  0.76783443  0.53285529  0.42948051     0.04200
C33         C  0.27605960  0.00000146  0.27361656     0.02200
C34         C  0.27500113  0.00254278  0.23688379     0.02100
C35         C  0.27608579  0.03980323  0.22063688    -0.18400
C36         C  0.27824047  0.07506248  0.24013084     0.02200
C37         C  0.27903813  0.07274033  0.27725217     0.02100
C38         C  0.27806930  0.03505300  0.29344762    -0.18400
H39         H  0.27769576  0.03303143  0.32171905     0.04200
H40         H  0.27418872  0.04133673  0.19238640     0.04200
C41         C  0.95790998  0.75942722  0.25878516     0.02200
C42         C  0.96161676  0.76404049  0.22222758     0.02100
C43         C  0.99978460  0.76562007  0.20732176    -0.18400
C44         C  0.03428326  0.76335311  0.22810720     0.02200
C45         C  0.03028551  0.75870047  0.26481096     0.02100
C46         C  0.99212426  0.75661714  0.27956455    -0.18400
H47         H  0.98898827  0.75416795  0.30768924     0.04200
H48         H  0.00264428  0.76957133  0.17932352     0.04200
C49         C  0.72990823  0.00524299  0.22397844     0.02200
C50         C  0.72960148  0.00392721  0.26091325     0.02100
C51         C  0.72959107  0.03967115  0.27985770    -0.18400
C52         C  0.73056389  0.07645303  0.26262455     0.02200
C53         C  0.72993177  0.07754099  0.22577804     0.02100
C54         C  0.72956892  0.04200805  0.20683047    -0.18400
H55         H  0.73030664  0.04296575  0.17850763     0.04200
H56         H  0.73003585  0.03882443  0.30817364     0.04200
C57         C  0.96941239  0.31917177  0.27144377     0.02200
C58         C  0.96934590  0.31681702  0.23440435     0.02100
C59         C  0.00591967  0.31555150  0.21668156    -0.18400
C60         C  0.04213688  0.31722942  0.23475867     0.02200
C61         C  0.04201789  0.31981971  0.27165442     0.02100
C62         C  0.00563713  0.32084292  0.28945411    -0.18400
H63         H  0.00550028  0.32111407  0.31779099     0.04200
H64         H  0.00630786  0.31207600  0.18853050     0.04200
O65         O  0.27661996  0.25542867  0.17736108    -0.71900
O66         O  0.26706741  0.35257511  0.12718112    -0.72100
O67         O  0.22124917  0.31304100  0.17280728    -0.72000
O68         O  0.32247238  0.29455395  0.13142936    -0.72000
O69         O  0.29371034  0.26697659  0.08697238    -0.71900
O70         O  0.19368700  0.27766204  0.13215430    -0.71900
O71         O  0.23464644  0.32188349  0.08623977    -0.71900
O72         O  0.25263803  0.22331885  0.13288820    -0.72100
V73         V  0.27137570  0.30331000  0.15136166     1.35200
V74         V  0.24423640  0.27310970  0.11029567     1.35200
C75         C  0.26666924  0.22289380  0.16350432     0.77400
C76         C  0.24811078  0.35391187  0.09873047     0.77400
C77         C  0.19033875  0.29744183  0.16006305     0.77300
C78         C  0.32532017  0.27804354  0.10186969     0.77300
O79         O  0.74785679  0.35912110  0.12615653    -0.71900
O80         O  0.73203956  0.25771545  0.16763706    -0.72100
O81         O  0.78834491  0.31354958  0.17245745    -0.72000
O82         O  0.69177246  0.30304868  0.12175245    -0.72000
O83         O  0.72367123  0.27135051  0.08075316    -0.71900
O84         O  0.82111354  0.28947986  0.12815670    -0.71900
O85         O  0.76798732  0.23051133  0.12681919    -0.71900
O86         O  0.77699032  0.33049976  0.08206936    -0.72100
V87         V  0.74064734  0.30789283  0.14622430     1.35200
V88         V  0.77180350  0.28104294  0.10524595     1.35200
C89         C  0.76456602  0.36191398  0.09664734     0.77400
C90         C  0.74815659  0.22699353  0.15464489     0.77400
C91         C  0.82113726  0.30341778  0.15878487     0.77300
C92         C  0.69128896  0.28466439  0.09298808     0.77300
O93         O  0.72002134  0.26144401  0.41841654    -0.71900
O94         O  0.81943837  0.27826430  0.37398629    -0.72100
O95         O  0.77583821  0.31835369  0.42125556    -0.72000
O96         O  0.76408269  0.22155949  0.37093455    -0.72000
O97         O  0.73288761  0.25357884  0.32968614    -0.71900
O98         O  0.74616730  0.35029472  0.37909974    -0.71900
O99         O  0.78957161  0.30976895  0.33181569    -0.71900
O100        O  0.69018890  0.29449429  0.37712989    -0.72100
V101        V  0.76922245  0.27050685  0.39535902     1.35200
V102        V  0.74036722  0.30137197  0.35519256     1.35200
C103        C  0.68819598  0.27546473  0.40559705     0.77400
C104        C  0.82146012  0.29649518  0.34517191     0.77400
C105        C  0.76275066  0.35072261  0.40867317     0.77300
C106        C  0.74636339  0.22119016  0.34182260     0.77300
O107        O  0.71588705  0.82009491  0.06837555    -0.71900
O108        O  0.81436793  0.79995959  0.11447230    -0.72100
O109        O  0.77031679  0.76067025  0.06719300    -0.72000
O110        O  0.76036142  0.85891871  0.11557653    -0.72000
O111        O  0.72937655  0.82869333  0.15774067    -0.71900
O112        O  0.73757005  0.73106538  0.10868476    -0.71900
O113        O  0.78301441  0.76894984  0.15586351    -0.71900
O114        O  0.68469083  0.79092842  0.11080475    -0.72100
V115        V  0.76461768  0.80928952  0.09215678     1.35200
V116        V  0.73435408  0.78047833  0.13246309     1.35200
C117        C  0.68336128  0.80926662  0.08194215     0.77400
C118        C  0.81547590  0.78106728  0.14308227     0.77400
C119        C  0.75537002  0.72927748  0.07967405     0.77300
C120        C  0.74301465  0.86042171  0.14484284     0.77300
O121        O  0.67742038  0.78135914  0.36581294    -0.71900
O122        O  0.77457673  0.76211338  0.31716182    -0.72100
O123        O  0.73080290  0.72148694  0.36394165    -0.72000
O124        O  0.72104110  0.82198519  0.31908591    -0.72000
O125        O  0.75048849  0.84995427  0.36306444    -0.71900
O126        O  0.76726145  0.74843012  0.40419140    -0.71900
O127        O  0.80663104  0.79359121  0.35786246    -0.71900
O128        O  0.71081044  0.80477454  0.40976332    -0.72100
V129        V  0.72657277  0.77224255  0.34227431     1.35200
V130        V  0.75812464  0.79866795  0.38292919     1.35200
C131        C  0.67778464  0.79536712  0.39645579     0.77400
C132        C  0.80695905  0.77553897  0.32894584     0.77400
C133        C  0.75097396  0.71782530  0.39162521     0.77300
C134        C  0.73379104  0.85317114  0.33359380     0.77300
O135        O  0.31665064  0.78096284  0.12290244    -0.71900
O136        O  0.22029051  0.77141704  0.17504509    -0.72100
O137        O  0.25904377  0.72580945  0.12835412    -0.72000
O138        O  0.27795605  0.82608461  0.16999508    -0.72000
O139        O  0.24306004  0.85515056  0.12946507    -0.71900
O140        O  0.22857813  0.75486090  0.08522515    -0.71900
O141        O  0.18770546  0.79804357  0.13174256    -0.71900
O142        O  0.28425488  0.81257661  0.08214252    -0.72100
V143        V  0.26790365  0.77662017  0.14824653     1.35200
V144        V  0.23661700  0.80459328  0.10789917     1.35200
C145        C  0.31680427  0.79919838  0.09393072     0.77400
C146        C  0.18755965  0.78262844  0.16181005     0.77400
C147        C  0.24061923  0.72306383  0.09974008     0.77300
C148        C  0.26326964  0.85760612  0.15725912     0.77300
O149        O  0.24612262  0.71960279  0.38062624    -0.71900
O150        O  0.26435655  0.81580570  0.33011554    -0.72100
O151        O  0.30524343  0.77309443  0.37757302    -0.72000
O152        O  0.20518293  0.76179932  0.33294035    -0.72000
O153        O  0.17629983  0.79259192  0.37590231    -0.71900
O154        O  0.27763697  0.81014337  0.41733402    -0.71900
O155        O  0.23239129  0.84879907  0.37023253    -0.71900
O156        O  0.22127679  0.75408925  0.42354672    -0.72100
V157        V  0.25464449  0.76822178  0.35606027     1.35200
V158        V  0.22743363  0.80073503  0.39596923     1.35200
C159        C  0.23126828  0.72072998  0.41099245     0.77400
C160        C  0.25105661  0.84864193  0.34158703     0.77400
C161        C  0.30866562  0.79397144  0.40480464     0.77300
C162        C  0.17353756  0.77474031  0.34693909     0.77300
O163        O  0.24306271  0.22296203  0.38383052    -0.71900
O164        O  0.22731608  0.32363077  0.42715467    -0.72100
O165        O  0.18644200  0.27993916  0.38098487    -0.72000
O166        O  0.28426552  0.26693248  0.43000805    -0.72000
O167        O  0.31581929  0.29355008  0.38629854    -0.71900
O168        O  0.21784360  0.31046429  0.33920730    -0.71900
O169        O  0.26067715  0.35212710  0.38559389    -0.71900
O170        O  0.27294666  0.25169497  0.34042518    -0.72100
V171        V  0.23591338  0.27389558  0.40468665     1.35200
V172        V  0.26617875  0.30140998  0.36369851     1.35200
C173        C  0.26030746  0.22008210  0.35457027     0.77400
C174        C  0.24156745  0.35502479  0.41400028     0.77400
C175        C  0.18561725  0.29783839  0.35191004     0.77300
C176        C  0.31666530  0.27780726  0.41624702     0.77300
C177        C  0.10004303  0.27932606  0.29054682    -0.09300
C178        C  0.07899534  0.31544303  0.29244650     0.06900
C179        C  0.09208944  0.34518496  0.31571725    -0.03000
C180        C  0.12699076  0.33910683  0.33512384    -0.07500
C181        C  0.14820113  0.30312292  0.33261839     0.06100
C182        C  0.13409110  0.27293069  0.31065513    -0.02500
Br183      Br  0.15991874  0.22221649  0.30779436    -0.02200
H184        H  0.08948157  0.25567830  0.27379510     0.10000
H185        H  0.13748301  0.36237504  0.35231978     0.08000
Br186      Br  0.06360231  0.39442632  0.32183956    -0.02600
C187        C  0.08783799  0.27706986  0.19774328    -0.09300
C188        C  0.07955772  0.31324035  0.21456624     0.06900
C189        C  0.10673759  0.34473338  0.21161853    -0.03000
C190        C  0.14268125  0.33889029  0.19386344    -0.07500
C191        C  0.15144962  0.30242177  0.17757548     0.06100
C192        C  0.12315446  0.27153105  0.17898815    -0.02500
Br193      Br  0.13133052  0.22053150  0.15736586    -0.02200
H194        H  0.06679886  0.25284685  0.19953754     0.10000
H195        H  0.16355435  0.36326242  0.19215571     0.08000
Br196      Br  0.09497393  0.39687016  0.22925182    -0.02600
C197        C  0.90426306  0.28354428  0.22286513    -0.09300
C198        C  0.93180149  0.31317558  0.21388847     0.06900
C199        C  0.92261969  0.33923656  0.18589005    -0.03000
C200        C  0.88661290  0.33526940  0.16784890    -0.07500
C201        C  0.85859378  0.30692701  0.17822393     0.06100
C202        C  0.86730001  0.28143231  0.20639140    -0.02500
Br203      Br  0.82959906  0.24362016  0.22375529    -0.02200
H204        H  0.91113833  0.26229364  0.24328351     0.10000
H205        H  0.87994342  0.35514089  0.14626256     0.08000
Br206      Br  0.95666890  0.38232787  0.17240753    -0.02600
C207        C  0.92690481  0.28080794  0.31201667    -0.09300
C208        C  0.93252475  0.31558095  0.29232864     0.06900
C209        C  0.90222273  0.34464887  0.29132553    -0.03000
C210        C  0.86621758  0.33780658  0.30860383    -0.07500
C211        C  0.86011081  0.30255099  0.32764140     0.06100
C212        C  0.89108204  0.27394893  0.32946142    -0.02500
Br213      Br  0.88550941  0.22356623  0.35277038    -0.02200
H214        H  0.95002203  0.25814724  0.31265205     0.10000
H215        H  0.84303248  0.36035157  0.30746285     0.08000
Br216      Br  0.90916301  0.39441239  0.26756484    -0.02600
C217        C  0.70080539  0.13306997  0.29567027    -0.09300
C218        C  0.73488317  0.11316951  0.28350031     0.06900
C219        C  0.77273943  0.12838137  0.29145830    -0.03000
C220        C  0.77600363  0.16336789  0.31100799    -0.07500
C221        C  0.74186637  0.18390508  0.32225128     0.06100
C222        C  0.70401976  0.16860781  0.31443618    -0.02500
Br223      Br  0.65607797  0.19438416  0.33004983    -0.02200
H224        H  0.67163434  0.12096640  0.29051511     0.10000
H225        H  0.80523882  0.17495005  0.31695090     0.08000
Br226      Br  0.82063633  0.10220507  0.27631586    -0.02600
C227        C  0.70653463  0.17801401  0.18581583    -0.09300
C228        C  0.74365165  0.18800747  0.17156093     0.06900
C229        C  0.77551637  0.16049305  0.17372287    -0.03000
C230        C  0.77031659  0.12468688  0.19158891    -0.07500
C231        C  0.73351599  0.11523242  0.20646369     0.06100
C232        C  0.70102242  0.14139607  0.20237871    -0.02500
Br233      Br  0.64827972  0.12718518  0.21665608    -0.02200
H234        H  0.68149030  0.19830149  0.18321578     0.10000
H235        H  0.79513698  0.10409163  0.19401287     0.08000
Br236      Br  0.82715330  0.17031857  0.15407383    -0.02600
C237        C  0.69915476  0.94687941  0.19515166    -0.09300
C238        C  0.73335180  0.96884318  0.20264937     0.06900
C239        C  0.77033407  0.95641218  0.18906190    -0.03000
C240        C  0.77283915  0.92145153  0.16938945    -0.07500
C241        C  0.73895904  0.89822157  0.16369914     0.06100
C242        C  0.70181490  0.91122667  0.17658204    -0.02500
Br243      Br  0.65370214  0.88219758  0.16849774    -0.02200
H244        H  0.67031107  0.95733655  0.20403715     0.10000
H245        H  0.80148983  0.91179291  0.15932803     0.08000
Br246      Br  0.81803023  0.98613773  0.19696753    -0.02600
C247        C  0.69768176  0.94028182  0.27844501    -0.09300
C248        C  0.73050055  0.96572350  0.28024839     0.06900
C249        C  0.76343497  0.95464761  0.30086954    -0.03000
C250        C  0.76286145  0.91881025  0.31943372    -0.07500
C251        C  0.73101367  0.89224452  0.31602722     0.06100
C252        C  0.69822617  0.90317988  0.29501855    -0.02500
Br253      Br  0.65282749  0.86958883  0.28870772    -0.02200
H254        H  0.67146533  0.94924324  0.26394735     0.10000
H255        H  0.78830476  0.91088553  0.33543435     0.08000
Br256      Br  0.81077678  0.98618703  0.30291495    -0.02600
C257        C  0.09912659  0.79907192  0.22144508    -0.09300
C258        C  0.07390429  0.76795205  0.21107650     0.06900
C259        C  0.08690246  0.74168264  0.18455138    -0.03000
C260        C  0.12443576  0.74654407  0.16938602    -0.07500
C261        C  0.14963314  0.77713498  0.18022330     0.06100
C262        C  0.13683810  0.80360805  0.20637295    -0.02500
Br263      Br  0.16936557  0.84715685  0.22103310    -0.02200
H264        H  0.08935105  0.82007028  0.24116389     0.10000
H265        H  0.13404175  0.72631973  0.14896298     0.08000
Br266      Br  0.05551631  0.69759973  0.16892232    -0.02600
C267        C  0.13066081  0.73638142  0.30647260    -0.09300
C268        C  0.13470541  0.76888491  0.32930381     0.06900
C269        C  0.10208811  0.79531170  0.33350892    -0.03000
C270        C  0.06813298  0.79083211  0.31277272    -0.07500
C271        C  0.06515278  0.75957726  0.28865182     0.06100
C272        C  0.09594200  0.73101148  0.28697568    -0.02500
Br273      Br  0.09125237  0.68322764  0.26002113    -0.02200
H274        H  0.15455914  0.71473346  0.30396420     0.10000
H275        H  0.04416846  0.81246618  0.31492130     0.08000
Br276      Br  0.10187014  0.83891318  0.36589284    -0.02600
C277        C  0.89874531  0.79909585  0.27609362    -0.09300
C278        C  0.91867898  0.76232303  0.27621939     0.06900
C279        C  0.90099613  0.72937201  0.29275366    -0.03000
C280        C  0.86388526  0.73376391  0.30910251    -0.07500
C281        C  0.84437706  0.77082542  0.30946099     0.06100
C282        C  0.86193730  0.80352918  0.29257111    -0.02500
Br283      Br  0.83655795  0.85465254  0.29060668    -0.02200
H284        H  0.91203802  0.82451318  0.26323417     0.10000
H285        H  0.85055297  0.70842949  0.32204398     0.08000
Br286      Br  0.92609061  0.67791290  0.29294190    -0.02600
C287        C  0.89762868  0.73667033  0.19984690    -0.09300
C288        C  0.92572253  0.76743990  0.19955280     0.06900
C289        C  0.91791199  0.80177734  0.17937005    -0.03000
C290        C  0.88244190  0.80493261  0.16035174    -0.07500
C291        C  0.85370491  0.77477476  0.16163011     0.06100
C292        C  0.86172449  0.74020228  0.18152448    -0.02500
Br293      Br  0.82554859  0.69630008  0.18401935    -0.02200
H294        H  0.90341459  0.70994704  0.21494376     0.10000
H295        H  0.87660875  0.83188067  0.14555557     0.08000
Br296      Br  0.95300484  0.84661109  0.17903075    -0.02600
C297        C  0.24670279  0.14151529  0.22897844    -0.09300
C298        C  0.27652438  0.11353114  0.22076486     0.06900
C299        C  0.30334678  0.12210726  0.19324897    -0.03000
C300        C  0.29933988  0.15758064  0.17427513    -0.07500
C301        C  0.27000972  0.18554120  0.18318004     0.06100
C302        C  0.24420608  0.17774536  0.21116517    -0.02500
Br303      Br  0.20514499  0.21592445  0.22575222    -0.02200
H304        H  0.22530485  0.13530459  0.24938711     0.10000
H305        H  0.31982072  0.16384528  0.15312205     0.08000
Br306      Br  0.34753836  0.08788681  0.18183688    -0.02600
C307        C  0.24404271  0.11419022  0.32175290    -0.09300
C308        C  0.27702841  0.10895085  0.29966394     0.06900
C309        C  0.30600836  0.13902065  0.29825638    -0.03000
C310        C  0.29978954  0.17493740  0.31608866    -0.07500
C311        C  0.26599885  0.18089076  0.33720267     0.06100
C312        C  0.23868692  0.14927990  0.34096285    -0.00900
Br313      Br  0.19274224  0.15195237  0.37079815    -0.02200
H314        H  0.22182785  0.09105327  0.32354560     0.10000
H315        H  0.32195786  0.19807670  0.31398266     0.08000
Br316      Br  0.35551447  0.13160767  0.27412051    -0.02600
C317        C  0.23211118  0.94528696  0.29312689    -0.09300
C318        C  0.27048888  0.96123971  0.29145266     0.06900
C319        C  0.30271396  0.93933612  0.30531940    -0.03000
C320        C  0.29614796  0.90188702  0.32047141    -0.07500
C321        C  0.25758811  0.88626814  0.32262784     0.06100
C322        C  0.22545900  0.90832037  0.30883418    -0.02500
Br323      Br  0.17211570  0.88883525  0.31012962    -0.02200
H324        H  0.20721225  0.96175743  0.28218378     0.10000
H325        H  0.32103562  0.88536424  0.33136797     0.08000
Br326      Br  0.35594258  0.95943997  0.30400970    -0.02600
C327        C  0.23605549  0.92298922  0.17591027    -0.09300
C328        C  0.26814513  0.89598375  0.17538002     0.06900
C329        C  0.30311599  0.90517053  0.19405798    -0.03000
C330        C  0.30497272  0.94031243  0.21344482    -0.07500
C331        C  0.27237968  0.96648777  0.21492199     0.06100
C332        C  0.23781002  0.95785376  0.19572662    -0.02500
Br333      Br  0.19147651  0.99151688  0.19747578    -0.02200
H334        H  0.20888399  0.91619783  0.16198602     0.10000
H335        H  0.33197074  0.94724332  0.22752658     0.08000
Br336      Br  0.34985075  0.87192078  0.19309587    -0.02600
C337        C  0.80144613  0.44510402  0.03853008    -0.09300
C338        C  0.76857223  0.47098810  0.03885496     0.06900
C339        C  0.73602165  0.46258612  0.06081729    -0.03000
C340        C  0.73629697  0.42789052  0.08102186    -0.07500
C341        C  0.76803764  0.40060777  0.07883141     0.06100
C342        C  0.80119230  0.40979714  0.05777485    -0.02500
Br343      Br  0.84743145  0.37602124  0.05486223    -0.02200
H344        H  0.82725850  0.45215218  0.02282309     0.10000
H345        H  0.71071174  0.42128121  0.09720224     0.08000
Br346      Br  0.68946896  0.49602659  0.06250077    -0.02600
C347        C  0.79737910  0.63443118  0.04121667    -0.09300
C348        C  0.76329464  0.61762082  0.02633875     0.06900
C349        C  0.72640177  0.63744932  0.02966616    -0.03000
C350        C  0.72430974  0.67408174  0.04696768    -0.07500
C351        C  0.75864740  0.69130856  0.06098021     0.06100
C352        C  0.79536414  0.67124146  0.05814687    -0.02500
Br353      Br  0.84294410  0.69204519  0.07865361    -0.02200
H354        H  0.82559947  0.61871477  0.03983746     0.10000
H355        H  0.69580989  0.68909910  0.04962999     0.08000
Br356      Br  0.67793727  0.61461035  0.51278306    -0.02600
C357        C  0.72860495  0.61716715  0.43187464    -0.09300
C358        C  0.76448374  0.60911009  0.44920060     0.06900
C359        C  0.79684874  0.63490845  0.44475381    -0.03000
C360        C  0.79197071  0.66991347  0.42543594    -0.07500
C361        C  0.75548584  0.67905675  0.40933219     0.06100
C362        C  0.72383273  0.65177479  0.41194162    -0.02500
Br363      Br  0.67253769  0.66121803  0.39130901    -0.02200
H364        H  0.70382319  0.59694565  0.43470377     0.10000
H365        H  0.81687457  0.69002649  0.42284657     0.08000
Br366      Br  0.84855661  0.62270503  0.46323298    -0.02600
C367        C  0.72985385  0.40805011  0.43696308    -0.09300
C368        C  0.76529758  0.38818779  0.42820159     0.06900
C369        C  0.80207133  0.40553321  0.43655447    -0.03000
C370        C  0.80285982  0.44283254  0.45284156    -0.07500
C371        C  0.76733231  0.46250239  0.46190918     0.06100
C372        C  0.73064160  0.44478761  0.45398621    -0.02500
Br373      Br  0.68095369  0.47015445  0.46516688    -0.02200
H374        H  0.70143873  0.39490537  0.43048786     0.10000
H375        H  0.83121320  0.45658016  0.45840177     0.08000
Br376      Br  0.85166179  0.38044341  0.42447341    -0.02600
C377        C  0.60037609  0.85065060  0.02364274    -0.09300
C378        C  0.56953691  0.82400140  0.03132998     0.06900
C379        C  0.57611231  0.79399248  0.05650669    -0.03000
C380        C  0.61297467  0.79073228  0.07300506    -0.07500
C381        C  0.64445864  0.81629470  0.06454520     0.06100
C382        C  0.63775313  0.84684116  0.03966781    -0.02500
Br383      Br  0.67771055  0.88463075  0.02660192    -0.02200
H384        H  0.59564091  0.87384392  0.50434816     0.10000
H385        H  0.61743057  0.76687254  0.09171101     0.08000
Br386      Br  0.53729665  0.75399525  0.06711722    -0.02600
C387        C  0.37220083  0.84260386  0.07448992    -0.09300
C388        C  0.35395896  0.80515422  0.07417691     0.06900
C389        C  0.37071814  0.77443548  0.05395841    -0.03000
C390        C  0.40444605  0.78170185  0.03356877    -0.07500
C391        C  0.42259117  0.81924637  0.03340165     0.06100
C392        C  0.40678504  0.84960817  0.05491060    -0.02500
Br393      Br  0.43103663  0.90098305  0.05848552    -0.02200
H394        H  0.35968001  0.86635756  0.09026619     0.10000
H395        H  0.41693662  0.75771791  0.51805285     0.08000
Br396      Br  0.34850312  0.72216485  0.05328699    -0.02600
C397        C  0.41321226  0.77652137  0.44024837    -0.09300
C398        C  0.42096859  0.81344269  0.45578308     0.06900
C399        C  0.39272501  0.84437771  0.45253289    -0.03000
C400        C  0.35623201  0.83720966  0.43625808    -0.07500
C401        C  0.34790727  0.79997142  0.42143873     0.06100
C402        C  0.37736270  0.76971254  0.42271202    -0.02500
Br403      Br  0.37028331  0.71806140  0.40226652    -0.02200
H404        H  0.43507274  0.75272820  0.44208862     0.10000
H405        H  0.33463254  0.86123270  0.43434695     0.08000
Br406      Br  0.40383121  0.89762886  0.46728057    -0.02600
C407        C  0.59597534  0.78275976  0.46360723    -0.09300
C408        C  0.56893488  0.81291543  0.45368122     0.06900
C409        C  0.57803897  0.83678894  0.42434995    -0.03000
C410        C  0.61317953  0.82996197  0.40547565    -0.07500
C411        C  0.64052553  0.80071953  0.41620694     0.06100
C412        C  0.63205879  0.77745006  0.44586060    -0.02500
Br413      Br  0.66876982  0.73806588  0.46313901    -0.02200
H414        H  0.58933090  0.76366935  0.48556163     0.10000
H415        H  0.61978471  0.84835898  0.38301840     0.08000
Br416      Br  0.54496741  0.88077130  0.41018031    -0.02600
C417        C  0.19757614  0.67872063  0.06437677    -0.09300
C418        C  0.23265681  0.68373928  0.08382795     0.06900
C419        C  0.25882864  0.65089375  0.08785979    -0.03000
C420        C  0.25127439  0.61540182  0.07011916    -0.07500
C421        C  0.21721261  0.61110684  0.04931047     0.06100
C422        C  0.18920475  0.64247039  0.04803074    -0.02500
Br423      Br  0.13827740  0.63646825  0.02623959    -0.02200
H424        H  0.17614955  0.70288816  0.06242796     0.10000
H425        H  0.27270245  0.59121226  0.07190602     0.08000
Br426      Br  0.30614319  0.65235698  0.11595908    -0.02600
C427        C  0.26235082  0.44623281  0.04357122    -0.09300
C428        C  0.22454002  0.46412174  0.04586449     0.06900
C429        C  0.19546131  0.44677836  0.06753911    -0.03000
C430        C  0.20343369  0.41035662  0.08404608    -0.07500
C431        C  0.24090973  0.39209604  0.08099008     0.06100
C432        C  0.27094420  0.41099726  0.06167404    -0.02500
Br433      Br  0.32419495  0.39037753  0.06019256    -0.02200
H434        H  0.28545500  0.46017418  0.02815060     0.10000
H435        H  0.18058960  0.39662435  0.09991768     0.08000
Br436      Br  0.14490072  0.47188982  0.07600734    -0.02600
C437        C  0.25737173  0.45940928  0.45032762    -0.09300
C438        C  0.22154385  0.46572943  0.46840139     0.06900
C439        C  0.19169785  0.43662442  0.46660166    -0.03000
C440        C  0.19898496  0.40083871  0.44894769    -0.07500
C441        C  0.23520628  0.39394239  0.43150461     0.06100
C442        C  0.26427596  0.42414006  0.43167884    -0.02500
Br443      Br  0.31475672  0.41841563  0.40868158    -0.02200
H444        H  0.28037537  0.48182191  0.45122925     0.10000
H445        H  0.17583532  0.37856633  0.44824157     0.08000
Br446      Br  0.13965680  0.44541903  0.48564981    -0.02600
C447        C  0.24857616  0.63891638  0.47729641    -0.09300
C448        C  0.21645082  0.61343141  0.47075953     0.06900
C449        C  0.18887297  0.62394136  0.44435773    -0.03000
C450        C  0.19433438  0.65878531  0.42474259    -0.07500
C451        C  0.22632430  0.68410916  0.43164787     0.06100
C452        C  0.25298635  0.67442866  0.45865631    -0.02500
Br453      Br  0.29581767  0.70892224  0.47095777    -0.02200
H454        H  0.27043168  0.63119085  0.49699486     0.10000
H455        H  0.17315480  0.66651437  0.40445214     0.08000
Br456      Br  0.14215723  0.59303195  0.93530424    -0.02600
C457        C  0.36883595  0.23869596  0.06222752    -0.09300
C458        C  0.36434436  0.27136602  0.08487512     0.06900
C459        C  0.39697670  0.29696200  0.09005973    -0.03000
C460        C  0.43166831  0.29151288  0.07047618    -0.07500
C461        C  0.43530314  0.26010278  0.04651786     0.06100
C462        C  0.40430501  0.23229446  0.04388281    -0.02500
Br463      Br  0.40953087  0.18437443  0.01703790    -0.02200
H464        H  0.34477004  0.21771849  0.05906342     0.10000
H465        H  0.45564839  0.31266889  0.07325961     0.08000
Br466      Br  0.39604397  0.34103419  0.12196951    -0.02600
C467        C  0.60015637  0.30411137  0.03778670    -0.09300
C468        C  0.58163702  0.26682670  0.03862345     0.06900
C469        C  0.59944008  0.23536384  0.05747407    -0.03000
C470        C  0.63553456  0.24150682  0.07484661    -0.07500
C471        C  0.65379637  0.27891012  0.07412704     0.06100
C472        C  0.63589133  0.31035595  0.05547710    -0.02500
Br473      Br  0.65952575  0.36202940  0.05287684    -0.02200
H474        H  0.58657110  0.32852061  0.02346133     0.10000
H475        H  0.64922558  0.21716198  0.08918813     0.08000
Br476      Br  0.57598583  0.18352043  0.55950803    -0.02600
C477        C  0.60442617  0.23534532  0.46204541    -0.09300
C478        C  0.57760912  0.26755481  0.46168429     0.06900
C479        C  0.58679971  0.30165300  0.44188776    -0.03000
C480        C  0.62243127  0.30307907  0.42300505    -0.07500
C481        C  0.64977213  0.27122875  0.42400583     0.06100
C482        C  0.64033573  0.23694818  0.44362554    -0.02500
Br483      Br  0.67433942  0.19079902  0.44530328    -0.02200
H484        H  0.59745835  0.20887922  0.47700641     0.10000
H485        H  0.62944551  0.32983745  0.40846170     0.08000
Br486      Br  0.55320823  0.34810521  0.94188958    -0.02600
C487        C  0.40169278  0.29549115  0.47857981    -0.09300
C488        C  0.42936569  0.26618755  0.46814162     0.06900
C489        C  0.41926923  0.24054707  0.44026223    -0.03000
C490        C  0.38238786  0.24470873  0.42355447    -0.07500
C491        C  0.35465901  0.27324313  0.43483388     0.06100
C492        C  0.36428910  0.29840924  0.46275501    -0.02500
Br493      Br  0.32727096  0.33759899  0.47946733    -0.02200
H494        H  0.40904776  0.31606025  0.99929991     0.10000
H495        H  0.37501678  0.22512561  0.40207646     0.08000
Br496      Br  0.45336149  0.19765653  0.42534237    -0.02600
C497        C  0.46832057  0.26273398  0.98667421     0.02200
C498        C  0.47094632  0.25884694  0.52360198     0.02100
C499        C  0.50848892  0.25836449  0.53963065    -0.18400
C500        C  0.54339869  0.26196438  0.51999897     0.02200
C501        C  0.54104709  0.26532236  0.98331695     0.02100
C502        C  0.50362518  0.26572901  0.96708793    -0.18400
H503        H  0.50200622  0.26923676  0.93897156     0.04200
H504        H  0.51050414  0.25675098  0.56787787     0.04200
C505        C  0.21322022  0.57547071  0.99081452     0.02200
C506        C  0.21327618  0.57439492  0.52793542     0.02100
C507        C  0.21470060  0.53741105  0.54511460    -0.18400
C508        C  0.21689917  0.50161252  0.52639924     0.02200
C509        C  0.21650573  0.50257167  0.98945713     0.02100
C510        C  0.21450312  0.53940834  0.97219412    -0.18400
H511        H  0.21580469  0.54003131  0.94389074     0.04200
H512        H  0.21618543  0.53656032  0.57341353     0.04200
C513        C  0.53159606  0.81906108  0.97423341     0.02200
C514        C  0.53193846  0.82530828  0.51089981     0.02100
C515        C  0.49566468  0.82926313  0.52896735    -0.18400
C516        C  0.45908114  0.82469561  0.51188722     0.02200
C517        C  0.45869787  0.81888647  0.97526657     0.02100
C518        C  0.49483107  0.81611636  0.95698400    -0.18400
H519        H  0.49428647  0.81032950  0.92914614     0.04200
H520        H  0.49601006  0.83306569  0.55708180     0.04200
C521        C  0.76861136  0.50613527  0.51557827     0.02200
C522        C  0.76885461  0.50199811  0.97883859     0.02100
C523        C  0.76815930  0.53604198  0.95767092    -0.18400
C524        C  0.76701735  0.57413644  0.97249594     0.02200
C525        C  0.76647452  0.57827649  0.50923288     0.02100
C526        C  0.76799363  0.54426373  0.53036450    -0.18400
H527        H  0.76782538  0.54747303  0.55855537     0.04200
H528        H  0.76783449  0.53285532  0.92948053     0.04200
C529        C  0.27605976  0.00000142  0.77361658     0.02200
C530        C  0.27500125  0.00254276  0.73688381     0.02100
C531        C  0.27608589  0.03980322  0.72063690    -0.18400
C532        C  0.27824056  0.07506246  0.74013087     0.02200
C533        C  0.27903824  0.07274031  0.77725220     0.02100
C534        C  0.27806945  0.03505296  0.79344765    -0.18400
H535        H  0.27769591  0.03303139  0.82171907     0.04200
H536        H  0.27418879  0.04133671  0.69238644     0.04200
C537        C  0.95790996  0.75942717  0.75878515     0.02200
C538        C  0.96161674  0.76404045  0.72222757     0.02100
C539        C  0.99978458  0.76562006  0.70732176    -0.18400
C540        C  0.03428324  0.76335310  0.72810720     0.02200
C541        C  0.03028549  0.75870045  0.76481095     0.02100
C542        C  0.99212423  0.75661710  0.77956453    -0.18400
H543        H  0.98898824  0.75416790  0.80768924     0.04200
H544        H  0.00264427  0.76957133  0.67932351     0.04200
C545        C  0.72990827  0.00524298  0.72397838     0.02200
C546        C  0.72960152  0.00392716  0.76091318     0.02100
C547        C  0.72959110  0.03967108  0.77985770    -0.18400
C548        C  0.73056390  0.07645299  0.76262454     0.02200
C549        C  0.72993178  0.07754098  0.72577803     0.02100
C550        C  0.72956895  0.04200806  0.70683042    -0.18400
H551        H  0.73030666  0.04296579  0.67850763     0.04200
H552        H  0.73003587  0.03882434  0.80817352     0.04200
C553        C  0.96941235  0.31917181  0.77144374     0.02200
C554        C  0.96934585  0.31681705  0.73440433     0.02100
C555        C  0.00591963  0.31555153  0.71668152    -0.18400
C556        C  0.04213684  0.31722946  0.73475864     0.02200
C557        C  0.04201784  0.31981973  0.77165439     0.02100
C558        C  0.00563709  0.32084295  0.78945409    -0.18400
H559        H  0.00550024  0.32111410  0.81779095     0.04200
H560        H  0.00630782  0.31207603  0.68853049     0.04200
O561        O  0.27661994  0.25542865  0.67736107    -0.71900
O562        O  0.26706740  0.35257509  0.62718112    -0.72100
O563        O  0.22124916  0.31304100  0.67280728    -0.72000
O564        O  0.32247236  0.29455390  0.63142933    -0.72000
O565        O  0.29371030  0.26697654  0.58697237    -0.71900
O566        O  0.19368697  0.27766205  0.63215430    -0.71900
O567        O  0.23464642  0.32188348  0.58623976    -0.71900
O568        O  0.25263797  0.22331883  0.63288821    -0.72100
V569        V  0.27137569  0.30330998  0.65136165     1.35200
V570        V  0.24423636  0.27310969  0.61029566     1.35200
C571        C  0.26666920  0.22289378  0.66350433     0.77400
C572        C  0.24811077  0.35391186  0.59873046     0.77400
C573        C  0.19033873  0.29744185  0.66006305     0.77300
C574        C  0.32532014  0.27804347  0.60186967     0.77300
O575        O  0.74785671  0.35912114  0.62615655    -0.71900
O576        O  0.73203952  0.25771548  0.66763709    -0.72100
O577        O  0.78834486  0.31354962  0.67245746    -0.72000
O578        O  0.69177240  0.30304871  0.62175249    -0.72000
O579        O  0.72367116  0.27135056  0.58075318    -0.71900
O580        O  0.82111347  0.28947989  0.62815670    -0.71900
O581        O  0.76798725  0.23051137  0.62681920    -0.71900
O582        O  0.77699025  0.33049980  0.58206938    -0.72100
V583        V  0.74064728  0.30789286  0.64622432     1.35200
V584        V  0.77180343  0.28104299  0.60524596     1.35200
C585        C  0.76456594  0.36191402  0.59664736     0.77400
C586        C  0.74815654  0.22699356  0.65464490     0.77400
C587        C  0.82113720  0.30341782  0.65878486     0.77300
C588        C  0.69128890  0.28466442  0.59298812     0.77300
O589        O  0.72002125  0.26144410  0.91841646    -0.71900
O590        O  0.81943829  0.27826429  0.87398622    -0.72100
O591        O  0.77583816  0.31835375  0.92125545    -0.72000
O592        O  0.76408258  0.22155951  0.87093451    -0.72000
O593        O  0.73288756  0.25357885  0.82968606    -0.71900
O594        O  0.74616725  0.35029476  0.87909963    -0.71900
O595        O  0.78957157  0.30976895  0.83181561    -0.71900
O596        O  0.69018883  0.29449434  0.87712978    -0.72100
V597        V  0.76922237  0.27050689  0.89535895     1.35200
V598        V  0.74036717  0.30137200  0.85519246     1.35200
C599        C  0.68819590  0.27546482  0.90559695     0.77400
C600        C  0.82146007  0.29649518  0.84517185     0.77400
C601        C  0.76275061  0.35072266  0.90867306     0.77300
C602        C  0.74636332  0.22119016  0.84182254     0.77300
O603        O  0.71588710  0.82009486  0.56837547    -0.71900
O604        O  0.81436795  0.79995959  0.61447227    -0.72100
O605        O  0.77031684  0.76067021  0.56719299    -0.72000
O606        O  0.76036144  0.85891871  0.61557644    -0.72000
O607        O  0.72937661  0.82869336  0.65774061    -0.71900
O608        O  0.73757002  0.73106539  0.60868473    -0.71900
O609        O  0.78301442  0.76894983  0.65586346    -0.71900
O610        O  0.68469085  0.79092847  0.61080471    -0.72100
V611        V  0.76461771  0.80928950  0.59215673     1.35200
V612        V  0.73435410  0.78047835  0.63246305     1.35200
C613        C  0.68336132  0.80926663  0.58194209     0.77400
C614        C  0.81547591  0.78106727  0.64308225     0.77400
C615        C  0.75537002  0.72927746  0.57967403     0.77300
C616        C  0.74301469  0.86042174  0.64484275     0.77300
O617        O  0.67742037  0.78135910  0.86581298    -0.71900
O618        O  0.77457671  0.76211335  0.81716183    -0.72100
O619        O  0.73080292  0.72148693  0.86394170    -0.72000
O620        O  0.72104107  0.82198513  0.81908590    -0.72000
O621        O  0.75048846  0.84995426  0.86306441    -0.71900
O622        O  0.76726148  0.74843014  0.90419142    -0.71900
O623        O  0.80663102  0.79359121  0.85786244    -0.71900
O624        O  0.71081044  0.80477454  0.90976334    -0.72100
V625        V  0.72657275  0.77224251  0.84227434     1.35200
V626        V  0.75812464  0.79866795  0.88292919     1.35200
C627        C  0.67778464  0.79536711  0.89645582     0.77400
C628        C  0.80695903  0.77553896  0.82894583     0.77400
C629        C  0.75097400  0.71782531  0.89162525     0.77300
C630        C  0.73379101  0.85317110  0.83359377     0.77300
O631        O  0.31665065  0.78096286  0.62290247    -0.71900
O632        O  0.22029052  0.77141711  0.67504512    -0.72100
O633        O  0.25904376  0.72580949  0.62835416    -0.72000
O634        O  0.27795608  0.82608467  0.66999508    -0.72000
O635        O  0.24306004  0.85515060  0.62946508    -0.71900
O636        O  0.22857817  0.75486093  0.58522516    -0.71900
O637        O  0.18770547  0.79804359  0.63174257    -0.71900
O638        O  0.28425491  0.81257666  0.58214256    -0.72100
V639        V  0.26790367  0.77662022  0.64824655     1.35200
V640        V  0.23661702  0.80459331  0.60789918     1.35200
C641        C  0.31680430  0.79919842  0.59393076     0.77400
C642        C  0.18755966  0.78262848  0.66181007     0.77400
C643        C  0.24061925  0.72306386  0.59974011     0.77300
C644        C  0.26326966  0.85760616  0.65725911     0.77300
O645        O  0.24612265  0.71960269  0.88062621    -0.71900
O646        O  0.26435659  0.81580559  0.83011548    -0.72100
O647        O  0.30524346  0.77309435  0.87757298    -0.72000
O648        O  0.20518296  0.76179921  0.83294030    -0.72000
O649        O  0.17629986  0.79259185  0.87590225    -0.71900
O650        O  0.27763699  0.81014328  0.91733398    -0.71900
O651        O  0.23239135  0.84879898  0.87023247    -0.71900
O652        O  0.22127679  0.75408916  0.92354667    -0.72100
V653        V  0.25464452  0.76822168  0.85606023     1.35200
V654        V  0.22743365  0.80073494  0.89596918     1.35200
C655        C  0.23126829  0.72072989  0.91099242     0.77400
C656        C  0.25105667  0.84864183  0.84158698     0.77400
C657        C  0.30866565  0.79397136  0.90480459     0.77300
C658        C  0.17353758  0.77474023  0.84693904     0.77300
O659        O  0.24306260  0.22296199  0.88383052    -0.71900
O660        O  0.22731595  0.32363072  0.92715471    -0.72100
O661        O  0.18644190  0.27993914  0.88098488    -0.72000
O662        O  0.28426539  0.26693241  0.93000810    -0.72000
O663        O  0.31581919  0.29354998  0.88629859    -0.71900
O664        O  0.21784352  0.31046433  0.83920735    -0.71900
O665        O  0.26067709  0.35212705  0.88559397    -0.71900
O666        O  0.27294654  0.25169496  0.84042519    -0.72100
V667        V  0.23591327  0.27389553  0.90468667     1.35200
V668        V  0.26617866  0.30140995  0.86369856     1.35200
C669        C  0.26030735  0.22008208  0.85457027     0.77400
C670        C  0.24156736  0.35502473  0.91400034     0.77400
C671        C  0.18561716  0.29783842  0.85191007     0.77300
C672        C  0.31666519  0.27780717  0.91624707     0.77300
C673        C  0.10004298  0.27932609  0.79054681    -0.09300
C674        C  0.07899529  0.31544307  0.79244648     0.06900
C675        C  0.09208937  0.34518500  0.81571723    -0.03000
C676        C  0.12699068  0.33910687  0.83512385    -0.07500
C677        C  0.14820106  0.30312296  0.83261841     0.06100
C678        C  0.13409104  0.27293073  0.81065515    -0.02500
Br679      Br  0.15991868  0.22221653  0.80779442    -0.02200
H680        H  0.08948153  0.25567833  0.77379509     0.10000
H681        H  0.13748291  0.36237508  0.85231979     0.08000
Br682      Br  0.06360220  0.39442635  0.82183954    -0.02600
C683        C  0.08783795  0.27706989  0.69774325    -0.09300
C684        C  0.07955769  0.31324039  0.71456622     0.06900
C685        C  0.10673757  0.34473341  0.71161852    -0.03000
C686        C  0.14268123  0.33889031  0.69386344    -0.07500
C687        C  0.15144960  0.30242180  0.67757548     0.06100
C688        C  0.12315443  0.27153108  0.67898814    -0.02500
Br689      Br  0.13133049  0.22053154  0.65736585    -0.02200
H690        H  0.06679883  0.25284689  0.69953750     0.10000
H691        H  0.16355434  0.36326244  0.69215572     0.08000
Br692      Br  0.09497392  0.39687019  0.72925182    -0.02600
C693        C  0.90426299  0.28354431  0.72286515    -0.09300
C694        C  0.93180143  0.31317560  0.71388844     0.06900
C695        C  0.92261965  0.33923657  0.68589003    -0.03000
C696        C  0.88661285  0.33526942  0.66784886    -0.07500
C697        C  0.85859372  0.30692706  0.67822392     0.06100
C698        C  0.86729993  0.28143238  0.70639141    -0.02500
Br699      Br  0.82959892  0.24362031  0.72375535    -0.02200
H700        H  0.91113823  0.26229374  0.74328349     0.10000
H701        H  0.87994340  0.35514088  0.64626254     0.08000
Br702      Br  0.95666885  0.38232790  0.67240752    -0.02600
C703        C  0.92690475  0.28080806  0.81201670    -0.09300
C704        C  0.93252471  0.31558099  0.79232862     0.06900
C705        C  0.90222266  0.34464889  0.79132547    -0.03000
C706        C  0.86621756  0.33780653  0.80860376    -0.07500
C707        C  0.86011077  0.30255100  0.82764137     0.06100
C708        C  0.89108204  0.27394899  0.82946146    -0.02500
Br709      Br  0.88550949  0.22356635  0.85277052    -0.02200
H710        H  0.95002216  0.25814723  0.81265212     0.10000
H711        H  0.84303227  0.36035164  0.80746274     0.08000
Br712      Br  0.90916290  0.39441239  0.76756477    -0.02600
C713        C  0.70080535  0.13306988  0.79567028    -0.09300
C714        C  0.73488316  0.11316945  0.78350032     0.06900
C715        C  0.77273941  0.12838134  0.79145829    -0.03000
C716        C  0.77600359  0.16336789  0.81100796    -0.07500
C717        C  0.74186632  0.18390507  0.82225124     0.06100
C718        C  0.70401972  0.16860775  0.81443617    -0.02500
Br719      Br  0.65607791  0.19438406  0.83004984    -0.02200
H720        H  0.67163438  0.12096631  0.79051515     0.10000
H721        H  0.80523877  0.17495007  0.81695085     0.08000
Br722      Br  0.82063632  0.10220503  0.77631590    -0.02600
C723        C  0.70653462  0.17801399  0.68581586    -0.09300
C724        C  0.74365160  0.18800750  0.67156095     0.06900
C725        C  0.77551634  0.16049309  0.67372289    -0.03000
C726        C  0.77031657  0.12468693  0.69158893    -0.07500
C727        C  0.73351599  0.11523243  0.70646370     0.06100
C728        C  0.70102240  0.14139607  0.70237873    -0.02500
Br729      Br  0.64827972  0.12718515  0.71665610    -0.02200
H730        H  0.68149020  0.19830153  0.68321580     0.10000
H731        H  0.79513702  0.10409166  0.69401289     0.08000
Br732      Br  0.82715327  0.17031865  0.65407386    -0.02600
C733        C  0.69915476  0.94687947  0.69515153    -0.09300
C734        C  0.73335184  0.96884320  0.70264928     0.06900
C735        C  0.77033412  0.95641218  0.68906183    -0.03000
C736        C  0.77283920  0.92145154  0.66938937    -0.07500
C737        C  0.73895908  0.89822160  0.66369903     0.06100
C738        C  0.70181494  0.91122672  0.67658189    -0.02500
Br739      Br  0.65370217  0.88219767  0.66849752    -0.02200
H740        H  0.67031117  0.95733659  0.70403697     0.10000
H741        H  0.80148989  0.91179290  0.65932798     0.08000
Br742      Br  0.81803028  0.98613772  0.69696750    -0.02600
C743        C  0.69768182  0.94028173  0.77844487    -0.09300
C744        C  0.73050059  0.96572343  0.78024830     0.06900
C745        C  0.76343498  0.95464755  0.80086950    -0.03000
C746        C  0.76286142  0.91881020  0.81943369    -0.07500
C747        C  0.73101366  0.89224446  0.81602715     0.06100
C748        C  0.69822622  0.90317979  0.79501840    -0.02500
Br749      Br  0.65282758  0.86958869  0.78870747    -0.02200
H750        H  0.67146541  0.94924313  0.76394717     0.10000
H751        H  0.78830472  0.91088550  0.83543438     0.08000
Br752      Br  0.81077679  0.98618697  0.80291494    -0.02600
C753        C  0.09912657  0.79907192  0.72144510    -0.09300
C754        C  0.07390429  0.76795205  0.71107651     0.06900
C755        C  0.08690248  0.74168264  0.68455139    -0.03000
C756        C  0.12443578  0.74654408  0.66938602    -0.07500
C757        C  0.14963315  0.77713502  0.68022332     0.06100
C758        C  0.13683809  0.80360807  0.70637299    -0.02500
Br759      Br  0.16936558  0.84715682  0.72103321    -0.02200
H760        H  0.08935103  0.82007028  0.74116391     0.10000
H761        H  0.13404176  0.72631979  0.64896304     0.08000
Br762      Br  0.05551637  0.69759969  0.66892237    -0.02600
C763        C  0.13066082  0.73638135  0.80647255    -0.09300
C764        C  0.13470543  0.76888485  0.82930376     0.06900
C765        C  0.10208814  0.79531165  0.83350890    -0.03000
C766        C  0.06813300  0.79083206  0.81277272    -0.07500
C767        C  0.06515276  0.75957722  0.78865182     0.06100
C768        C  0.09594197  0.73101143  0.78697565    -0.02500
Br769      Br  0.09125228  0.68322758  0.76002113    -0.02200
H770        H  0.15455909  0.71473342  0.80396413     0.10000
H771        H  0.04416844  0.81246617  0.81492131     0.08000
Br772      Br  0.10187021  0.83891313  0.86589280    -0.02600
C773        C  0.89874530  0.79909579  0.77609367    -0.09300
C774        C  0.91867895  0.76232299  0.77621937     0.06900
C775        C  0.90099605  0.72937195  0.79275359    -0.03000
C776        C  0.86388519  0.73376390  0.80910241    -0.07500
C777        C  0.84437703  0.77082540  0.80946097     0.06100
C778        C  0.86193733  0.80352918  0.79257116    -0.02500
Br779      Br  0.83655808  0.85465259  0.79060685    -0.02200
H780        H  0.91203812  0.82451325  0.76323420     0.10000
H781        H  0.85055280  0.70842935  0.82204390     0.08000
Br782      Br  0.92609048  0.67791283  0.79294181    -0.02600
C783        C  0.89762867  0.73667034  0.69984683    -0.09300
C784        C  0.92572252  0.76743988  0.69955279     0.06900
C785        C  0.91791196  0.80177734  0.67937006    -0.03000
C786        C  0.88244189  0.80493258  0.66035177    -0.07500
C787        C  0.85370491  0.77477476  0.66163009     0.06100
C788        C  0.86172450  0.74020225  0.68152444    -0.02500
Br789      Br  0.82554860  0.69630005  0.68401929    -0.02200
H790        H  0.90341461  0.70994690  0.71494374     0.10000
H791        H  0.87660871  0.83188076  0.64555557     0.08000
Br792      Br  0.95300479  0.84661111  0.67903082    -0.02600
C793        C  0.24670280  0.14151524  0.72897847    -0.09300
C794        C  0.27652444  0.11353113  0.72076488     0.06900
C795        C  0.30334683  0.12210727  0.69324900    -0.03000
C796        C  0.29933993  0.15758066  0.67427514    -0.07500
C797        C  0.27000970  0.18554117  0.68318005     0.06100
C798        C  0.24420606  0.17774530  0.71116517    -0.02500
Br799      Br  0.20514492  0.21592435  0.72575221    -0.02200
H800        H  0.22530491  0.13530453  0.74938709     0.10000
H801        H  0.31982068  0.16384529  0.65312215     0.08000
Br802      Br  0.34753843  0.08788685  0.68183691    -0.02600
C803        C  0.24404277  0.11419016  0.82175293    -0.09300
C804        C  0.27702847  0.10895082  0.79966397     0.06900
C805        C  0.30600837  0.13902067  0.79825639    -0.03000
C806        C  0.29978946  0.17493740  0.81608865    -0.07500
C807        C  0.26599879  0.18089074  0.83720267     0.06100
C808        C  0.23868691  0.14927983  0.84096286    -0.00900
Br809      Br  0.19274224  0.15195223  0.87079817    -0.02200
H810        H  0.22182793  0.09105314  0.82354564     0.10000
H811        H  0.32195781  0.19807682  0.81398264     0.08000
Br812      Br  0.35551449  0.13160776  0.77412052    -0.02600
C813        C  0.23211132  0.94528697  0.79312699    -0.09300
C814        C  0.27048903  0.96123966  0.79145267     0.06900
C815        C  0.30271412  0.93933595  0.80531927    -0.03000
C816        C  0.29614804  0.90188687  0.82047124    -0.07500
C817        C  0.25758821  0.88626805  0.82262778     0.06100
C818        C  0.22545910  0.90832037  0.80883424    -0.02500
Br819      Br  0.17211578  0.88883532  0.81012972    -0.02200
H820        H  0.20721232  0.96175755  0.78218395     0.10000
H821        H  0.32103585  0.88536394  0.83136777     0.08000
Br822      Br  0.35594278  0.95943967  0.80400942    -0.02600
C823        C  0.23605551  0.92298921  0.67591039    -0.09300
C824        C  0.26814517  0.89598380  0.67537999     0.06900
C825        C  0.30311612  0.90517064  0.69405780    -0.03000
C826        C  0.30497283  0.94031250  0.71344467    -0.07500
C827        C  0.27237978  0.96648777  0.71492200     0.06100
C828        C  0.23781004  0.95785372  0.69572675    -0.02500
Br829      Br  0.19147649  0.99151679  0.69747606    -0.02200
H830        H  0.20888386  0.91619776  0.66198619     0.10000
H831        H  0.33197100  0.94724346  0.72752637     0.08000
Br832      Br  0.34985096  0.87192102  0.69309540    -0.02600
C833        C  0.80144609  0.44510410  0.53853020    -0.09300
C834        C  0.76857217  0.47098813  0.53885498     0.06900
C835        C  0.73602154  0.46258611  0.56081724    -0.03000
C836        C  0.73629684  0.42789053  0.58102184    -0.07500
C837        C  0.76803757  0.40060782  0.57883145     0.06100
C838        C  0.80119227  0.40979722  0.55777495    -0.02500
Br839      Br  0.84743146  0.37602136  0.55486242    -0.02200
H840        H  0.82725857  0.45215232  0.52282323     0.10000
H841        H  0.71071164  0.42128120  0.59720213     0.08000
Br842      Br  0.68946880  0.49602652  0.56250058    -0.02600
C843        C  0.79737905  0.63443114  0.54121664    -0.09300
C844        C  0.76329457  0.61762083  0.52633871     0.06900
C845        C  0.72640171  0.63744934  0.52966613    -0.03000
C846        C  0.72430970  0.67408176  0.54696766    -0.07500
C847        C  0.75864738  0.69130853  0.56098021     0.06100
C848        C  0.79536410  0.67124141  0.55814686    -0.02500
Br849      Br  0.84294407  0.69204508  0.57865363    -0.02200
H850        H  0.82559937  0.61871473  0.53983743     0.10000
H851        H  0.69580987  0.68909912  0.54962997     0.08000
Br852      Br  0.67793734  0.61461029  0.01278311    -0.02600
C853        C  0.72860502  0.61716717  0.93187469    -0.09300
C854        C  0.76448381  0.60911011  0.94920065     0.06900
C855        C  0.79684880  0.63490849  0.94475386    -0.03000
C856        C  0.79197076  0.66991351  0.92543600    -0.07500
C857        C  0.75548589  0.67905676  0.90933224     0.06100
C858        C  0.72383279  0.65177480  0.91194167    -0.02500
Br859      Br  0.67253776  0.66121801  0.89130904    -0.02200
H860        H  0.70382327  0.59694565  0.93470382     0.10000
H861        H  0.81687461  0.69002653  0.92284663     0.08000
Br862      Br  0.84855668  0.62270507  0.96323302    -0.02600
C863        C  0.72985382  0.40805006  0.93696316    -0.09300
C864        C  0.76529756  0.38818785  0.92820148     0.06900
C865        C  0.80207132  0.40553334  0.93655420    -0.03000
C866        C  0.80285982  0.44283264  0.95284133    -0.07500
C867        C  0.76733233  0.46250240  0.96190915     0.06100
C868        C  0.73064162  0.44478754  0.95398634    -0.02500
Br869      Br  0.68095371  0.47015422  0.96516731    -0.02200
H870        H  0.70143874  0.39490529  0.93048807     0.10000
H871        H  0.83121322  0.45658031  0.95840144     0.08000
Br872      Br  0.85166176  0.38044363  0.92447291    -0.02600
C873        C  0.60037616  0.85065057  0.52364261    -0.09300
C874        C  0.56953694  0.82400143  0.53132995     0.06900
C875        C  0.57611231  0.79399258  0.55650673    -0.03000
C876        C  0.61297468  0.79073237  0.57300508    -0.07500
C877        C  0.64445868  0.81629471  0.56454514     0.06100
C878        C  0.63775321  0.84684111  0.53966768    -0.02500
Br879      Br  0.67771069  0.88463058  0.52660167    -0.02200
H880        H  0.59564081  0.87384406  0.00434830     0.10000
H881        H  0.61743055  0.76687270  0.59171109     0.08000
Br882      Br  0.53729658  0.75399548  0.56711743    -0.02600
C883        C  0.37220084  0.84260392  0.57448992    -0.09300
C884        C  0.35395900  0.80515426  0.57417696     0.06900
C885        C  0.37071823  0.77443549  0.55395852    -0.03000
C886        C  0.40444614  0.78170184  0.53356887    -0.07500
C887        C  0.42259121  0.81924639  0.53340169     0.06100
C888        C  0.40678506  0.84960822  0.55491060    -0.02500
Br889      Br  0.43103662  0.90098312  0.55848545    -0.02200
H890        H  0.35968000  0.86635763  0.59026615     0.10000
H891        H  0.41693652  0.75771790  0.01805267     0.08000
Br892      Br  0.34850325  0.72216484  0.55328719    -0.02600
C893        C  0.41321232  0.77652145  0.94024823    -0.09300
C894        C  0.42096860  0.81344272  0.95578303     0.06900
C895        C  0.39272494  0.84437769  0.95253292    -0.03000
C896        C  0.35623200  0.83720956  0.93625811    -0.07500
C897        C  0.34790728  0.79997139  0.92143867     0.06100
C898        C  0.37736279  0.76971257  0.92271189    -0.02500
Br899      Br  0.37028348  0.71806146  0.90226631    -0.02200
H900        H  0.43507292  0.75272826  0.94208843     0.10000
H901        H  0.33463233  0.86123271  0.93434703     0.08000
Br902      Br  0.40383100  0.89762881  0.96728073    -0.02600
C903        C  0.59597534  0.78275981  0.96360726    -0.09300
C904        C  0.56893488  0.81291547  0.95368124     0.06900
C905        C  0.57803897  0.83678896  0.92434996    -0.03000
C906        C  0.61317953  0.82996197  0.90547566    -0.07500
C907        C  0.64052553  0.80071954  0.91620698     0.06100
C908        C  0.63205879  0.77745009  0.94586064    -0.02500
Br909      Br  0.66876981  0.73806592  0.96313909    -0.02200
H910        H  0.58933089  0.76366939  0.98556168     0.10000
H911        H  0.61978471  0.84835896  0.88301840     0.08000
Br912      Br  0.54496740  0.88077128  0.91018028    -0.02600
C913        C  0.19757622  0.67872068  0.56437674    -0.09300
C914        C  0.23265683  0.68373932  0.58382798     0.06900
C915        C  0.25882863  0.65089377  0.58785989    -0.03000
C916        C  0.25127437  0.61540188  0.57011923    -0.07500
C917        C  0.21721268  0.61110687  0.54931048     0.06100
C918        C  0.18920483  0.64247045  0.54803069    -0.02500
Br919      Br  0.13827754  0.63646835  0.52623943    -0.02200
H920        H  0.17614962  0.70288826  0.56242787     0.10000
H921        H  0.27270251  0.59121218  0.57190615     0.08000
Br922      Br  0.30614310  0.65235695  0.61595928    -0.02600
C923        C  0.26235084  0.44623279  0.54357121    -0.09300
C924        C  0.22454007  0.46412177  0.54586449     0.06900
C925        C  0.19546137  0.44677843  0.56753914    -0.03000
C926        C  0.20343373  0.41035669  0.58404609    -0.07500
C927        C  0.24090973  0.39209604  0.58099008     0.06100
C928        C  0.27094421  0.41099724  0.56167402    -0.02500
Br929      Br  0.32419494  0.39037747  0.56019253    -0.02200
H930        H  0.28545506  0.46017415  0.52815056     0.10000
H931        H  0.18058959  0.39662442  0.59991775     0.08000
Br932      Br  0.14490081  0.47188995  0.57600739    -0.02600
C933        C  0.25737159  0.45940921  0.95032765    -0.09300
C934        C  0.22154373  0.46572940  0.96840140     0.06900
C935        C  0.19169773  0.43662439  0.96660168    -0.03000
C936        C  0.19898490  0.40083870  0.94894773    -0.07500
C937        C  0.23520619  0.39394233  0.93150467     0.06100
C938        C  0.26427587  0.42414001  0.93167889    -0.02500
Br939      Br  0.31475662  0.41841558  0.90868163    -0.02200
H940        H  0.28037532  0.48182193  0.95122928     0.10000
H941        H  0.17583513  0.37856621  0.94824161     0.08000
Br942      Br  0.13965667  0.44541902  0.98564978    -0.02600
C943        C  0.24857614  0.63891625  0.97729638    -0.09300
C944        C  0.21645070  0.61343137  0.97075954     0.06900
C945        C  0.18887282  0.62394137  0.94435779    -0.03000
C946        C  0.19433423  0.65878531  0.92474258    -0.07500
C947        C  0.22632428  0.68410907  0.93164784     0.06100
C948        C  0.25298636  0.67442852  0.95865624    -0.02500
Br949      Br  0.29581780  0.70892198  0.97095761    -0.02200
H950        H  0.27043162  0.63119069  0.99699474     0.10000
H951        H  0.17315475  0.66651437  0.90445230     0.08000
Br952      Br  0.14215747  0.59303184  0.43530409    -0.02600
C953        C  0.36883590  0.23869586  0.56222749    -0.09300
C954        C  0.36434432  0.27136593  0.58487509     0.06900
C955        C  0.39697667  0.29696190  0.59005969    -0.03000
C956        C  0.43166831  0.29151278  0.57047615    -0.07500
C957        C  0.43530311  0.26010265  0.54651783     0.06100
C958        C  0.40430496  0.23229436  0.54388277    -0.02500
Br959      Br  0.40953079  0.18437434  0.51703784    -0.02200
H960        H  0.34477001  0.21771842  0.55906339     0.10000
H961        H  0.45564833  0.31266872  0.57325958     0.08000
Br962      Br  0.39604394  0.34103413  0.62196944    -0.02600
C963        C  0.60015631  0.30411131  0.53778671    -0.09300
C964        C  0.58163699  0.26682663  0.53862350     0.06900
C965        C  0.59944005  0.23536380  0.55747416    -0.03000
C966        C  0.63553451  0.24150682  0.57484672    -0.07500
C967        C  0.65379631  0.27891013  0.57412710     0.06100
C968        C  0.63589127  0.31035592  0.55547711    -0.02500
Br969      Br  0.65952570  0.36202936  0.55287676    -0.02200
H970        H  0.58657106  0.32852050  0.52346130     0.10000
H971        H  0.64922553  0.21716201  0.58918826     0.08000
Br972      Br  0.57598580  0.18352050  0.05950794    -0.02600
C973        C  0.60442607  0.23534542  0.96204531    -0.09300
C974        C  0.57760907  0.26755497  0.96168424     0.06900
C975        C  0.58679969  0.30165318  0.94188774    -0.03000
C976        C  0.62243125  0.30307927  0.92300500    -0.07500
C977        C  0.64977205  0.27122887  0.92400574     0.06100
C978        C  0.64033563  0.23694829  0.94362541    -0.02500
Br979      Br  0.67433926  0.19079908  0.94530306    -0.02200
H980        H  0.59745825  0.20887938  0.97700624     0.10000
H981        H  0.62944550  0.32983757  0.90846173     0.08000
Br982      Br  0.55320821  0.34810500  0.44188953    -0.02600
C983        C  0.40169265  0.29549116  0.97857987    -0.09300
C984        C  0.42936563  0.26618764  0.96814165     0.06900
C985        C  0.41926918  0.24054712  0.94026228    -0.03000
C986        C  0.38238780  0.24470872  0.92355454    -0.07500
C987        C  0.35465889  0.27324306  0.93483396     0.06100
C988        C  0.36428894  0.29840916  0.96275511    -0.02500
Br989      Br  0.32727069  0.33759876  0.97946750    -0.02200
H990        H  0.40904792  0.31606023  0.49929985     0.10000
H991        H  0.37501674  0.22512558  0.90207652     0.08000
Br992      Br  0.45336148  0.19765659  0.92534245    -0.02600
loop_ 
_geom_bond_atom_site_label_1 
_geom_bond_atom_site_label_2 
_geom_bond_distance 
_geom_bond_site_symmetry_2 
_ccdc_geom_bond_type 
C1            C6   1.407       .  A
C1          C498   1.422       .  A
C1          C488   1.493       .  S
C2            C3   1.403       .  A
C2          C497   1.422   1_554  A
C2          C461   1.484       .  S
C3            C4   1.399       .  A
C3            H8   1.085       .  S
C4          C501   1.411   1_554  A
C4          C468   1.480       .  S
C5            C6   1.403       .  A
C5          C500   1.411       .  A
C5          C478   1.483       .  S
C6            H7   1.084       .  S
C9           C14   1.407       .  A
C9          C506   1.421       .  A
C9          C448   1.492       .  S
C10          C11   1.405       .  A
C10         C505   1.421   1_554  A
C10         C421   1.488       .  S
C11          C12   1.402       .  A
C11          H16   1.085       .  S
C12         C509   1.414   1_554  A
C12         C428   1.483       .  S
C13          C14   1.403       .  A
C13         C508   1.414       .  A
C13         C438   1.486       .  S
C14          H15   1.084       .  S
C17          C22   1.405       .  A
C17         C514   1.419       .  A
C17         C408   1.494       .  S
C18          C19   1.407       .  A
C18         C513   1.419   1_554  A
C18         C378   1.487       .  S
C19          C20   1.402       .  A
C19          H24   1.084       .  S
C20         C517   1.416   1_554  A
C20         C391   1.489       .  S
C21          C22   1.404       .  A
C21         C516   1.416       .  A
C21         C398   1.484       .  S
C22          H23   1.084       .  S
C25          C30   1.401       .  A
C25         C522   1.413   1_554  A
C25         C338   1.478       .  S
C26          C27   1.400       .  A
C26         C521   1.413       .  A
C26         C371   1.478       .  S
C27          C28   1.401       .  A
C27          H32   1.085       .  S
C28         C525   1.413       .  A
C28         C358   1.475       .  S
C29          C30   1.399       .  A
C29         C524   1.413   1_554  A
C29         C348   1.479       .  S
C30          H31   1.085       .  S
C33          C34   1.409       .  A
C33          C38   1.404       .  A
C33         C318   1.482   1_545  S
C34          C35   1.397       .  A
C34         C331   1.478   1_545  S
C35          C36   1.403       .  A
C35          H40   1.084       .  S
C36          C37   1.423       .  A
C36         C298   1.489       .  S
C37          C38   1.409       .  A
C37         C308   1.490       .  S
C38          H39   1.084       .  S
C41          C42   1.413       .  A
C41          C46   1.401       .  A
C41         C278   1.480       .  S
C42          C43   1.405       .  A
C42         C288   1.490       .  S
C43          C44   1.408   1_655  A
C43          H48   1.084   1_655  S
C44          C45   1.420       .  A
C44         C258   1.491       .  S
C45          C46   1.403   1_455  A
C45         C271   1.486       .  S
C46          H47   1.085       .  S
C49          C50   1.414       .  A
C49          C54   1.397       .  A
C49         C238   1.475   1_545  S
C50          C51   1.403       .  A
C50         C248   1.480   1_545  S
C51          C52   1.400       .  A
C51          H56   1.084       .  S
C52          C53   1.411       .  A
C52         C218   1.479       .  S
C53          C54   1.398       .  A
C53         C231   1.470       .  S
C54          H55   1.085       .  S
C57          C58   1.420       .  A
C57          C62   1.401   1_655  A
C57         C208   1.480       .  S
C58          C59   1.404   1_655  A
C58         C198   1.492       .  S
C59          C60   1.402       .  A
C59          H64   1.084       .  S
C60          C61   1.415       .  A
C60         C188   1.481       .  S
C61          C62   1.399       .  A
C61         C178   1.482       .  S
C62          H63   1.085       .  S
O65          V73   1.897       .  S
O65          C75   1.263       .  A
O66          V73   1.899       .  S
O66          C76   1.263       .  A
O67          V73   1.900       .  S
O67          C77   1.265       .  A
O68          V73   1.899       .  S
O68          C78   1.264       .  A
O69          V74   1.896       .  S
O69          C78   1.264       .  A
O70          V74   1.898       .  S
O70          C77   1.263       .  A
O71          V74   1.903       .  S
O71          C76   1.265       .  A
O72          V74   1.901       .  S
O72          C75   1.264       .  A
V73          V74   2.086       .  T
C75         C301   1.466       .  S
C76         C431   1.469       .  S
C77         C191   1.477       .  S
C78         C458   1.479       .  S
O79          V87   1.900       .  S
O79          C89   1.265       .  A
O80          V87   1.897       .  S
O80          C90   1.264       .  A
O81          V87   1.903       .  S
O81          C91   1.264       .  A
O82          V87   1.899       .  S
O82          C92   1.263       .  A
O83          V88   1.900       .  S
O83          C92   1.263       .  A
O84          V88   1.899       .  S
O84          C91   1.263       .  A
O85          V88   1.891       .  S
O85          C90   1.262       .  A
O86          V88   1.891       .  S
O86          C89   1.262       .  A
V87          V88   2.088       .  T
C89         C341   1.472       .  S
C90         C228   1.468       .  S
C91         C201   1.468       .  S
C92         C471   1.467       .  S
O93         V101   1.900       .  S
O93         C103   1.264       .  A
O94         V101   1.894       .  S
O94         C104   1.263       .  A
O95         V101   1.904       .  S
O95         C105   1.264       .  A
O96         V101   1.901       .  S
O96         C106   1.264       .  A
O97         V102   1.898       .  S
O97         C106   1.263       .  A
O98         V102   1.893       .  S
O98         C105   1.262       .  A
O99         V102   1.902       .  S
O99         C104   1.265       .  A
O100        V102   1.899       .  S
O100        C103   1.264       .  A
V101        V102   2.088       .  T
C103        C481   1.478       .  S
C104        C211   1.477       .  S
C105        C368   1.468       .  S
C106        C221   1.469       .  S
O107        V115   1.906       .  S
O107        C117   1.265       .  A
O108        V115   1.902       .  S
O108        C118   1.265       .  A
O109        V115   1.902       .  S
O109        C119   1.264       .  A
O110        V115   1.898       .  S
O110        C120   1.263       .  A
O111        V116   1.894       .  S
O111        C120   1.263       .  A
O112        V116   1.896       .  S
O112        C119   1.262       .  A
O113        V116   1.902       .  S
O113        C118   1.265       .  A
O114        V116   1.894       .  S
O114        C117   1.265       .  A
V115        V116   2.087       .  T
C117        C381   1.485       .  S
C118        C291   1.482       .  S
C119        C351   1.467       .  S
C120        C241   1.467       .  S
O121        V129   1.904       .  S
O121        C131   1.265       .  A
O122        V129   1.906       .  S
O122        C132   1.265       .  A
O123        V129   1.899       .  S
O123        C133   1.264       .  A
O124        V129   1.898       .  S
O124        C134   1.264       .  A
O125        V130   1.897       .  S
O125        C134   1.264       .  A
O126        V130   1.895       .  S
O126        C133   1.264       .  A
O127        V130   1.898       .  S
O127        C132   1.263       .  A
O128        V130   1.902       .  S
O128        C131   1.264       .  A
V129        V130   2.087       .  T
C131        C411   1.472       .  S
C132        C281   1.469       .  S
C133        C361   1.474       .  S
C134        C251   1.476       .  S
O135        V143   1.909       .  S
O135        C145   1.266       .  A
O136        V143   1.909       .  S
O136        C146   1.266       .  A
O137        V143   1.895       .  S
O137        C147   1.262       .  A
O138        V143   1.892       .  S
O138        C148   1.262       .  A
O139        V144   1.903       .  S
O139        C148   1.266       .  A
O140        V144   1.905       .  S
O140        C147   1.267       .  A
O141        V144   1.893       .  S
O141        C146   1.261       .  A
O142        V144   1.900       .  S
O142        C145   1.263       .  A
V143        V144   2.087       .  T
C145        C388   1.474       .  S
C146        C261   1.469       .  S
C147        C418   1.481       .  S
C148        C328   1.475       .  S
O149        V157   1.906       .  S
O149        C159   1.265       .  A
O150        V157   1.910       .  S
O150        C160   1.266       .  A
O151        V157   1.898       .  S
O151        C161   1.263       .  A
O152        V157   1.897       .  S
O152        C162   1.265       .  A
O153        V158   1.904       .  S
O153        C162   1.265       .  A
O154        V158   1.904       .  S
O154        C161   1.266       .  A
O155        V158   1.898       .  S
O155        C160   1.263       .  A
O156        V158   1.900       .  S
O156        C159   1.263       .  A
V157        V158   2.086       .  T
C159        C451   1.471       .  S
C160        C321   1.474       .  S
C161        C401   1.480       .  S
C162        C268   1.484       .  S
O163        V171   1.902       .  S
O163        C173   1.264       .  A
O164        V171   1.900       .  S
O164        C174   1.265       .  A
O165        V171   1.904       .  S
O165        C175   1.264       .  A
O166        V171   1.905       .  S
O166        C176   1.265       .  A
O167        V172   1.896       .  S
O167        C176   1.262       .  A
O168        V172   1.898       .  S
O168        C175   1.263       .  A
O169        V172   1.907       .  S
O169        C174   1.266       .  A
O170        V172   1.906       .  S
O170        C173   1.267       .  A
V171        V172   2.087       .  T
C173        C311   1.487       .  S
C174        C441   1.484       .  S
C175        C181   1.468       .  S
C176        C491   1.469       .  S
C177        C178   1.402       .  A
C177        C182   1.395       .  A
C177        H184   1.083       .  S
C178        C179   1.412       .  A
C179        C180   1.402       .  A
C179       Br186   1.919       .  S
C180        C181   1.402       .  A
C180        H185   1.084       .  S
C181        C182   1.404       .  A
C182       Br183   1.909       .  S
C187        C188   1.402       .  A
C187        C192   1.398       .  A
C187        H194   1.084       .  S
C188        C189   1.407       .  A
C189        C190   1.398       .  A
C189       Br196   1.916       .  S
C190        C191   1.404       .  A
C190        H195   1.084       .  S
C191        C192   1.413       .  A
C192       Br193   1.921       .  S
C197        C198   1.406       .  A
C197        C202   1.396       .  A
C197        H204   1.081       .  S
C198        C199   1.415       .  A
C199        C200   1.401       .  A
C199       Br206   1.921       .  S
C200        C201   1.401       .  A
C200        H205   1.084       .  S
C201        C202   1.405       .  A
C202       Br203   1.918       .  S
C207        C208   1.403       .  A
C207        C212   1.397       .  A
C207        H214   1.084       .  S
C208        C209   1.406       .  A
C209        C210   1.399       .  A
C209       Br216   1.917       .  S
C210        C211   1.405       .  A
C210        H215   1.083       .  S
C211        C212   1.413       .  A
C212       Br213   1.922       .  S
C217        C218   1.401       .  A
C217        C222   1.399       .  A
C217        H224   1.082       .  S
C218        C219   1.408       .  A
C219        C220   1.399       .  A
C219       Br226   1.918       .  S
C220        C221   1.402       .  A
C220        H225   1.084       .  S
C221        C222   1.408       .  A
C222       Br223   1.919       .  S
C227        C228   1.404       .  A
C227        C232   1.396       .  A
C227        H234   1.083       .  S
C228        C229   1.412       .  A
C229        C230   1.394       .  A
C229       Br236   1.921       .  S
C230        C231   1.399       .  A
C230        H235   1.084       .  S
C231        C232   1.405       .  A
C232       Br233   1.918       .  S
C237        C238   1.400       .  A
C237        C242   1.396       .  A
C237        H244   1.083       .  S
C238        C239   1.408       .  A
C239        C240   1.398       .  A
C239       Br246   1.919       .  S
C240        C241   1.402       .  A
C240        H245   1.084       .  S
C241        C242   1.408       .  A
C242       Br243   1.920       .  S
C247        C248   1.402       .  A
C247        C252   1.397       .  A
C247        H254   1.082       .  S
C248        C249   1.407       .  A
C249        C250   1.397       .  A
C249       Br256   1.919       .  S
C250        C251   1.405       .  A
C250        H255   1.083       .  S
C251        C252   1.411       .  A
C252       Br253   1.920       .  S
C257        C258   1.408       .  A
C257        C262   1.401       .  A
C257        H264   1.083       .  S
C258        C259   1.413       .  A
C259        C260   1.399       .  A
C259       Br266   1.921       .  S
C260        C261   1.400       .  A
C260        H265   1.084       .  S
C261        C262   1.405       .  A
C262       Br263   1.917       .  S
C267        C268   1.407       .  A
C267        C272   1.398       .  A
C267        H274   1.084       .  S
C268        C269   1.415       .  A
C269        C270   1.400       .  A
C269       Br276   1.920       .  S
C270        C271   1.403       .  A
C270        H275   1.084       .  S
C271        C272   1.407       .  A
C272       Br273   1.917       .  S
C277        C278   1.401       .  A
C277        C282   1.395       .  A
C277        H284   1.084       .  S
C278        C279   1.409       .  A
C279        C280   1.402       .  A
C279       Br286   1.917       .  S
C280        C281   1.403       .  A
C280        H285   1.083       .  S
C281        C282   1.407       .  A
C282       Br283   1.913       .  S
C287        C288   1.405       .  A
C287        C292   1.400       .  A
C287        H294   1.083       .  S
C288        C289   1.410       .  A
C289        C290   1.400       .  A
C289       Br296   1.919       .  S
C290        C291   1.405       .  A
C290        H295   1.084       .  S
C291        C292   1.412       .  A
C292       Br293   1.920       .  S
C297        C298   1.405       .  A
C297        C302   1.396       .  A
C297        H304   1.082       .  S
C298        C299   1.416       .  A
C299        C300   1.400       .  A
C299       Br306   1.922       .  S
C300        C301   1.399       .  A
C300        H305   1.084       .  S
C301        C302   1.403       .  A
C302       Br303   1.912       .  S
C307        C308   1.404       .  A
C307        C312   1.400       .  A
C307        H314   1.083       .  S
C308        C309   1.409       .  A
C309        C310   1.401       .  A
C309       Br316   1.917       .  S
C310        C311   1.407       .  A
C310        H315   1.083       .  S
C311        C312   1.415       .  A
C312       Br313   1.921       .  S
C317        C318   1.401       .  A
C317        C322   1.398       .  A
C317        H324   1.084       .  S
C318        C319   1.408       .  A
C319        C320   1.403       .  A
C319       Br326   1.917       .  S
C320        C321   1.404       .  A
C320        H325   1.084       .  S
C321        C322   1.407       .  A
C322       Br323   1.913       .  S
C327        C328   1.404       .  A
C327        C332   1.398       .  A
C327        H334   1.083       .  S
C328        C329   1.412       .  A
C329        C330   1.397       .  A
C329       Br336   1.921       .  S
C330        C331   1.401       .  A
C330        H335   1.083       .  S
C331        C332   1.407       .  A
C332       Br333   1.919       .  S
C337        C338   1.401       .  A
C337        C342   1.395       .  A
C337        H344   1.082       .  S
C338        C339   1.409       .  A
C339        C340   1.397       .  A
C339       Br346   1.920       .  S
C340        C341   1.404       .  A
C340        H345   1.083       .  S
C341        C342   1.410       .  A
C342       Br343   1.920       .  S
C347        C348   1.402       .  A
C347        C352   1.398       .  A
C347        H354   1.083       .  S
C348        C349   1.409       .  A
C349        C350   1.399       .  A
C349       Br852   1.918       .  S
C350        C351   1.402       .  A
C350        H355   1.084       .  S
C351        C352   1.406       .  A
C352       Br353   1.918       .  S
Br356       C845   1.918       .  S
C357        C358   1.401       .  A
C357        C362   1.398       .  A
C357        H364   1.084       .  S
C358        C359   1.405       .  A
C359        C360   1.396       .  A
C359       Br366   1.918       .  S
C360        C361   1.404       .  A
C360        H365   1.084       .  S
C361        C362   1.412       .  A
C362       Br363   1.921       .  S
C367        C368   1.402       .  A
C367        C372   1.397       .  A
C367        H374   1.084       .  S
C368        C369   1.407       .  A
C369        C370   1.401       .  A
C369       Br376   1.918       .  S
C370        C371   1.404       .  A
C370        H375   1.083       .  S
C371        C372   1.406       .  A
C372       Br373   1.917       .  S
C377        C378   1.405       .  A
C377        C382   1.403       .  A
C377        H880   1.083       .  S
C378        C379   1.410       .  A
C379        C380   1.394       .  A
C379       Br386   1.922       .  S
C380        C381   1.405       .  A
C380        H385   1.083       .  S
C381        C382   1.415       .  A
C382       Br383   1.920       .  S
H384        C873   1.083       .  S
C387        C388   1.403       .  A
C387        C392   1.403       .  A
C387        H394   1.084       .  S
C388        C389   1.405       .  A
C389        C390   1.398       .  A
C389       Br396   1.913       .  S
C390        C391   1.405       .  A
C390        H891   1.083       .  S
C391        C392   1.412       .  A
C392       Br393   1.919       .  S
H395        C886   1.083       .  S
C397        C398   1.402       .  A
C397        C402   1.400       .  A
C397        H404   1.084       .  S
C398        C399   1.407       .  A
C399        C400   1.398       .  A
C399       Br406   1.916       .  S
C400        C401   1.404       .  A
C400        H405   1.084       .  S
C401        C402   1.414       .  A
C402       Br403   1.921       .  S
C407        C408   1.408       .  A
C407        C412   1.400       .  A
C407        H414   1.080       .  S
C408        C409   1.413       .  A
C409        C410   1.401       .  A
C409       Br416   1.920       .  S
C410        C411   1.401       .  A
C410        H415   1.082       .  S
C411        C412   1.407       .  A
C412       Br413   1.919       .  S
C417        C418   1.406       .  A
C417        C422   1.400       .  A
C417        H424   1.084       .  S
C418        C419   1.414       .  A
C419        C420   1.398       .  A
C419       Br426   1.921       .  S
C420        C421   1.403       .  A
C420        H425   1.084       .  S
C421        C422   1.408       .  A
C422       Br423   1.916       .  S
C427        C428   1.404       .  A
C427        C432   1.399       .  A
C427        H434   1.084       .  S
C428        C429   1.410       .  A
C429        C430   1.400       .  A
C429       Br436   1.919       .  S
C430        C431   1.402       .  A
C430        H435   1.084       .  S
C431        C432   1.405       .  A
C432       Br433   1.915       .  S
C437        C438   1.403       .  A
C437        C442   1.402       .  A
C437        H444   1.083       .  S
C438        C439   1.407       .  A
C439        C440   1.400       .  A
C439       Br446   1.915       .  S
C440        C441   1.406       .  A
C440        H445   1.083       .  S
C441        C442   1.413       .  A
C442       Br443   1.919       .  S
C447        C448   1.405       .  A
C447        C452   1.397       .  A
C447        H454   1.083       .  S
C448        C449   1.414       .  A
C449        C450   1.402       .  A
C449       Br952   1.920       .  S
C450        C451   1.401       .  A
C450        H455   1.084       .  S
C451        C452   1.405       .  A
C452       Br453   1.914       .  S
Br456       C945   1.920       .  S
C457        C458   1.407       .  A
C457        C462   1.398       .  A
C457        H464   1.083       .  S
C458        C459   1.413       .  A
C459        C460   1.397       .  A
C459       Br466   1.921       .  S
C460        C461   1.403       .  A
C460        H465   1.084       .  S
C461        C462   1.408       .  A
C462       Br463   1.918       .  S
C467        C468   1.403       .  A
C467        C472   1.396       .  A
C467        H474   1.084       .  S
C468        C469   1.408       .  A
C469        C470   1.400       .  A
C469       Br972   1.918       .  S
C470        C471   1.402       .  A
C470        H475   1.084       .  S
C471        C472   1.406       .  A
C472       Br473   1.916       .  S
Br476       C965   1.918       .  S
C477        C478   1.403       .  A
C477        C482   1.398       .  A
C477        H484   1.083       .  S
C478        C479   1.408       .  A
C479        C480   1.399       .  A
C479       Br982   1.919       .  S
C480        C481   1.405       .  A
C480        H485   1.084       .  S
C481        C482   1.411       .  A
C482       Br483   1.920       .  S
Br486       C975   1.919       .  S
C487        C488   1.407       .  A
C487        C492   1.398       .  A
C487        H990   1.083       .  S
C488        C489   1.415       .  A
C489        C490   1.401       .  A
C489       Br496   1.921       .  S
C490        C491   1.400       .  A
C490        H495   1.084       .  S
C491        C492   1.403       .  A
C492       Br493   1.915       .  S
H494        C983   1.083       .  S
C497        C502   1.407       .  A
C497        C984   1.493       .  S
C498        C499   1.403       .  A
C498        C957   1.484       .  S
C499        C500   1.399       .  A
C499        H504   1.085       .  S
C500        C964   1.480       .  S
C501        C502   1.403       .  A
C501        C974   1.483       .  S
C502        H503   1.084       .  S
C505        C510   1.407       .  A
C505        C944   1.492       .  S
C506        C507   1.405       .  A
C506        C917   1.488       .  S
C507        C508   1.402       .  A
C507        H512   1.085       .  S
C508        C924   1.483       .  S
C509        C510   1.403       .  A
C509        C934   1.486       .  S
C510        H511   1.084       .  S
C513        C518   1.405       .  A
C513        C904   1.494       .  S
C514        C515   1.407       .  A
C514        C874   1.487       .  S
C515        C516   1.402       .  A
C515        H520   1.084       .  S
C516        C887   1.489       .  S
C517        C518   1.404       .  A
C517        C894   1.484       .  S
C518        H519   1.084       .  S
C521        C526   1.401       .  A
C521        C834   1.478       .  S
C522        C523   1.400       .  A
C522        C867   1.478       .  S
C523        C524   1.401       .  A
C523        H528   1.085       .  S
C524        C854   1.475       .  S
C525        C526   1.399       .  A
C525        C844   1.479       .  S
C526        H527   1.085       .  S
C529        C530   1.409       .  A
C529        C534   1.404       .  A
C529        C814   1.482   1_545  S
C530        C531   1.397       .  A
C530        C827   1.478   1_545  S
C531        C532   1.403       .  A
C531        H536   1.084       .  S
C532        C533   1.423       .  A
C532        C794   1.489       .  S
C533        C534   1.409       .  A
C533        C804   1.490       .  S
C534        H535   1.084       .  S
C537        C538   1.413       .  A
C537        C542   1.401       .  A
C537        C774   1.480       .  S
C538        C539   1.405       .  A
C538        C784   1.490       .  S
C539        C540   1.408   1_655  A
C539        H544   1.084   1_655  S
C540        C541   1.420       .  A
C540        C754   1.491       .  S
C541        C542   1.403   1_455  A
C541        C767   1.486       .  S
C542        H543   1.085       .  S
C545        C546   1.414       .  A
C545        C550   1.397       .  A
C545        C734   1.475   1_545  S
C546        C547   1.403       .  A
C546        C744   1.480   1_545  S
C547        C548   1.400       .  A
C547        H552   1.084       .  S
C548        C549   1.411       .  A
C548        C714   1.479       .  S
C549        C550   1.398       .  A
C549        C727   1.470       .  S
C550        H551   1.085       .  S
C553        C554   1.420       .  A
C553        C558   1.401   1_655  A
C553        C704   1.480       .  S
C554        C555   1.404   1_655  A
C554        C694   1.492       .  S
C555        C556   1.402       .  A
C555        H560   1.084       .  S
C556        C557   1.415       .  A
C556        C684   1.481       .  S
C557        C558   1.399       .  A
C557        C674   1.482       .  S
C558        H559   1.085       .  S
O561        V569   1.897       .  S
O561        C571   1.263       .  A
O562        V569   1.899       .  S
O562        C572   1.263       .  A
O563        V569   1.900       .  S
O563        C573   1.265       .  A
O564        V569   1.899       .  S
O564        C574   1.264       .  A
O565        V570   1.896       .  S
O565        C574   1.264       .  A
O566        V570   1.898       .  S
O566        C573   1.263       .  A
O567        V570   1.903       .  S
O567        C572   1.265       .  A
O568        V570   1.901       .  S
O568        C571   1.264       .  A
V569        V570   2.086       .  T
C571        C797   1.466       .  S
C572        C927   1.469       .  S
C573        C687   1.477       .  S
C574        C954   1.479       .  S
O575        V583   1.900       .  S
O575        C585   1.265       .  A
O576        V583   1.897       .  S
O576        C586   1.264       .  A
O577        V583   1.903       .  S
O577        C587   1.264       .  A
O578        V583   1.899       .  S
O578        C588   1.263       .  A
O579        V584   1.900       .  S
O579        C588   1.263       .  A
O580        V584   1.899       .  S
O580        C587   1.263       .  A
O581        V584   1.891       .  S
O581        C586   1.262       .  A
O582        V584   1.891       .  S
O582        C585   1.262       .  A
V583        V584   2.088       .  T
C585        C837   1.472       .  S
C586        C724   1.468       .  S
C587        C697   1.468       .  S
C588        C967   1.467       .  S
O589        V597   1.900       .  S
O589        C599   1.264       .  A
O590        V597   1.894       .  S
O590        C600   1.263       .  A
O591        V597   1.904       .  S
O591        C601   1.264       .  A
O592        V597   1.901       .  S
O592        C602   1.264       .  A
O593        V598   1.898       .  S
O593        C602   1.263       .  A
O594        V598   1.893       .  S
O594        C601   1.262       .  A
O595        V598   1.902       .  S
O595        C600   1.265       .  A
O596        V598   1.899       .  S
O596        C599   1.264       .  A
V597        V598   2.088       .  T
C599        C977   1.478       .  S
C600        C707   1.477       .  S
C601        C864   1.468       .  S
C602        C717   1.469       .  S
O603        V611   1.906       .  S
O603        C613   1.265       .  A
O604        V611   1.902       .  S
O604        C614   1.265       .  A
O605        V611   1.902       .  S
O605        C615   1.264       .  A
O606        V611   1.898       .  S
O606        C616   1.263       .  A
O607        V612   1.894       .  S
O607        C616   1.263       .  A
O608        V612   1.896       .  S
O608        C615   1.262       .  A
O609        V612   1.902       .  S
O609        C614   1.265       .  A
O610        V612   1.894       .  S
O610        C613   1.265       .  A
V611        V612   2.087       .  T
C613        C877   1.485       .  S
C614        C787   1.482       .  S
C615        C847   1.467       .  S
C616        C737   1.467       .  S
O617        V625   1.904       .  S
O617        C627   1.265       .  A
O618        V625   1.906       .  S
O618        C628   1.265       .  A
O619        V625   1.899       .  S
O619        C629   1.264       .  A
O620        V625   1.898       .  S
O620        C630   1.264       .  A
O621        V626   1.897       .  S
O621        C630   1.264       .  A
O622        V626   1.895       .  S
O622        C629   1.264       .  A
O623        V626   1.898       .  S
O623        C628   1.263       .  A
O624        V626   1.902       .  S
O624        C627   1.264       .  A
V625        V626   2.087       .  T
C627        C907   1.472       .  S
C628        C777   1.469       .  S
C629        C857   1.474       .  S
C630        C747   1.476       .  S
O631        V639   1.909       .  S
O631        C641   1.266       .  A
O632        V639   1.909       .  S
O632        C642   1.266       .  A
O633        V639   1.895       .  S
O633        C643   1.262       .  A
O634        V639   1.892       .  S
O634        C644   1.262       .  A
O635        V640   1.903       .  S
O635        C644   1.266       .  A
O636        V640   1.905       .  S
O636        C643   1.267       .  A
O637        V640   1.893       .  S
O637        C642   1.261       .  A
O638        V640   1.900       .  S
O638        C641   1.263       .  A
V639        V640   2.087       .  T
C641        C884   1.474       .  S
C642        C757   1.469       .  S
C643        C914   1.481       .  S
C644        C824   1.475       .  S
O645        V653   1.906       .  S
O645        C655   1.265       .  A
O646        V653   1.910       .  S
O646        C656   1.266       .  A
O647        V653   1.898       .  S
O647        C657   1.263       .  A
O648        V653   1.897       .  S
O648        C658   1.265       .  A
O649        V654   1.904       .  S
O649        C658   1.265       .  A
O650        V654   1.904       .  S
O650        C657   1.266       .  A
O651        V654   1.898       .  S
O651        C656   1.263       .  A
O652        V654   1.900       .  S
O652        C655   1.263       .  A
V653        V654   2.086       .  T
C655        C947   1.471       .  S
C656        C817   1.474       .  S
C657        C897   1.480       .  S
C658        C764   1.484       .  S
O659        V667   1.902       .  S
O659        C669   1.264       .  A
O660        V667   1.900       .  S
O660        C670   1.265       .  A
O661        V667   1.904       .  S
O661        C671   1.264       .  A
O662        V667   1.905       .  S
O662        C672   1.265       .  A
O663        V668   1.896       .  S
O663        C672   1.262       .  A
O664        V668   1.898       .  S
O664        C671   1.263       .  A
O665        V668   1.907       .  S
O665        C670   1.266       .  A
O666        V668   1.906       .  S
O666        C669   1.267       .  A
V667        V668   2.087       .  T
C669        C807   1.487       .  S
C670        C937   1.484       .  S
C671        C677   1.468       .  S
C672        C987   1.469       .  S
C673        C674   1.402       .  A
C673        C678   1.395       .  A
C673        H680   1.083       .  S
C674        C675   1.412       .  A
C675        C676   1.402       .  A
C675       Br682   1.919       .  S
C676        C677   1.402       .  A
C676        H681   1.084       .  S
C677        C678   1.404       .  A
C678       Br679   1.909       .  S
C683        C684   1.402       .  A
C683        C688   1.398       .  A
C683        H690   1.084       .  S
C684        C685   1.407       .  A
C685        C686   1.398       .  A
C685       Br692   1.916       .  S
C686        C687   1.404       .  A
C686        H691   1.084       .  S
C687        C688   1.413       .  A
C688       Br689   1.921       .  S
C693        C694   1.406       .  A
C693        C698   1.396       .  A
C693        H700   1.081       .  S
C694        C695   1.415       .  A
C695        C696   1.401       .  A
C695       Br702   1.921       .  S
C696        C697   1.401       .  A
C696        H701   1.084       .  S
C697        C698   1.405       .  A
C698       Br699   1.918       .  S
C703        C704   1.403       .  A
C703        C708   1.397       .  A
C703        H710   1.084       .  S
C704        C705   1.406       .  A
C705        C706   1.399       .  A
C705       Br712   1.917       .  S
C706        C707   1.405       .  A
C706        H711   1.083       .  S
C707        C708   1.413       .  A
C708       Br709   1.922       .  S
C713        C714   1.401       .  A
C713        C718   1.399       .  A
C713        H720   1.082       .  S
C714        C715   1.408       .  A
C715        C716   1.399       .  A
C715       Br722   1.918       .  S
C716        C717   1.402       .  A
C716        H721   1.084       .  S
C717        C718   1.408       .  A
C718       Br719   1.919       .  S
C723        C724   1.404       .  A
C723        C728   1.396       .  A
C723        H730   1.083       .  S
C724        C725   1.412       .  A
C725        C726   1.394       .  A
C725       Br732   1.921       .  S
C726        C727   1.399       .  A
C726        H731   1.084       .  S
C727        C728   1.405       .  A
C728       Br729   1.918       .  S
C733        C734   1.400       .  A
C733        C738   1.396       .  A
C733        H740   1.083       .  S
C734        C735   1.408       .  A
C735        C736   1.398       .  A
C735       Br742   1.919       .  S
C736        C737   1.402       .  A
C736        H741   1.084       .  S
C737        C738   1.408       .  A
C738       Br739   1.920       .  S
C743        C744   1.402       .  A
C743        C748   1.397       .  A
C743        H750   1.082       .  S
C744        C745   1.407       .  A
C745        C746   1.397       .  A
C745       Br752   1.919       .  S
C746        C747   1.405       .  A
C746        H751   1.083       .  S
C747        C748   1.411       .  A
C748       Br749   1.920       .  S
C753        C754   1.408       .  A
C753        C758   1.401       .  A
C753        H760   1.083       .  S
C754        C755   1.413       .  A
C755        C756   1.399       .  A
C755       Br762   1.921       .  S
C756        C757   1.400       .  A
C756        H761   1.084       .  S
C757        C758   1.405       .  A
C758       Br759   1.917       .  S
C763        C764   1.407       .  A
C763        C768   1.398       .  A
C763        H770   1.084       .  S
C764        C765   1.415       .  A
C765        C766   1.400       .  A
C765       Br772   1.920       .  S
C766        C767   1.403       .  A
C766        H771   1.084       .  S
C767        C768   1.407       .  A
C768       Br769   1.917       .  S
C773        C774   1.401       .  A
C773        C778   1.395       .  A
C773        H780   1.084       .  S
C774        C775   1.409       .  A
C775        C776   1.402       .  A
C775       Br782   1.917       .  S
C776        C777   1.403       .  A
C776        H781   1.083       .  S
C777        C778   1.407       .  A
C778       Br779   1.913       .  S
C783        C784   1.405       .  A
C783        C788   1.400       .  A
C783        H790   1.083       .  S
C784        C785   1.410       .  A
C785        C786   1.400       .  A
C785       Br792   1.919       .  S
C786        C787   1.405       .  A
C786        H791   1.084       .  S
C787        C788   1.412       .  A
C788       Br789   1.920       .  S
C793        C794   1.405       .  A
C793        C798   1.396       .  A
C793        H800   1.082       .  S
C794        C795   1.416       .  A
C795        C796   1.400       .  A
C795       Br802   1.922       .  S
C796        C797   1.399       .  A
C796        H801   1.084       .  S
C797        C798   1.403       .  A
C798       Br799   1.912       .  S
C803        C804   1.404       .  A
C803        C808   1.400       .  A
C803        H810   1.083       .  S
C804        C805   1.409       .  A
C805        C806   1.401       .  A
C805       Br812   1.917       .  S
C806        C807   1.407       .  A
C806        H811   1.083       .  S
C807        C808   1.415       .  A
C808       Br809   1.921       .  S
C813        C814   1.401       .  A
C813        C818   1.398       .  A
C813        H820   1.084       .  S
C814        C815   1.408       .  A
C815        C816   1.403       .  A
C815       Br822   1.917       .  S
C816        C817   1.404       .  A
C816        H821   1.084       .  S
C817        C818   1.407       .  A
C818       Br819   1.913       .  S
C823        C824   1.404       .  A
C823        C828   1.398       .  A
C823        H830   1.083       .  S
C824        C825   1.412       .  A
C825        C826   1.397       .  A
C825       Br832   1.921       .  S
C826        C827   1.401       .  A
C826        H831   1.083       .  S
C827        C828   1.407       .  A
C828       Br829   1.919       .  S
C833        C834   1.401       .  A
C833        C838   1.395       .  A
C833        H840   1.082       .  S
C834        C835   1.409       .  A
C835        C836   1.397       .  A
C835       Br842   1.920       .  S
C836        C837   1.404       .  A
C836        H841   1.083       .  S
C837        C838   1.410       .  A
C838       Br839   1.920       .  S
C843        C844   1.402       .  A
C843        C848   1.398       .  A
C843        H850   1.083       .  S
C844        C845   1.409       .  A
C845        C846   1.399       .  A
C846        C847   1.402       .  A
C846        H851   1.084       .  S
C847        C848   1.406       .  A
C848       Br849   1.918       .  S
C853        C854   1.401       .  A
C853        C858   1.398       .  A
C853        H860   1.084       .  S
C854        C855   1.405       .  A
C855        C856   1.396       .  A
C855       Br862   1.918       .  S
C856        C857   1.404       .  A
C856        H861   1.084       .  S
C857        C858   1.412       .  A
C858       Br859   1.921       .  S
C863        C864   1.402       .  A
C863        C868   1.397       .  A
C863        H870   1.084       .  S
C864        C865   1.407       .  A
C865        C866   1.401       .  A
C865       Br872   1.918       .  S
C866        C867   1.404       .  A
C866        H871   1.083       .  S
C867        C868   1.406       .  A
C868       Br869   1.917       .  S
C873        C874   1.405       .  A
C873        C878   1.403       .  A
C874        C875   1.410       .  A
C875        C876   1.394       .  A
C875       Br882   1.922       .  S
C876        C877   1.405       .  A
C876        H881   1.083       .  S
C877        C878   1.415       .  A
C878       Br879   1.920       .  S
C883        C884   1.403       .  A
C883        C888   1.403       .  A
C883        H890   1.084       .  S
C884        C885   1.405       .  A
C885        C886   1.398       .  A
C885       Br892   1.913       .  S
C886        C887   1.405       .  A
C887        C888   1.412       .  A
C888       Br889   1.919       .  S
C893        C894   1.402       .  A
C893        C898   1.400       .  A
C893        H900   1.084       .  S
C894        C895   1.407       .  A
C895        C896   1.398       .  A
C895       Br902   1.916       .  S
C896        C897   1.404       .  A
C896        H901   1.084       .  S
C897        C898   1.414       .  A
C898       Br899   1.921       .  S
C903        C904   1.408       .  A
C903        C908   1.400       .  A
C903        H910   1.080       .  S
C904        C905   1.413       .  A
C905        C906   1.401       .  A
C905       Br912   1.920       .  S
C906        C907   1.401       .  A
C906        H911   1.082       .  S
C907        C908   1.407       .  A
C908       Br909   1.919       .  S
C913        C914   1.406       .  A
C913        C918   1.400       .  A
C913        H920   1.084       .  S
C914        C915   1.414       .  A
C915        C916   1.398       .  A
C915       Br922   1.921       .  S
C916        C917   1.403       .  A
C916        H921   1.084       .  S
C917        C918   1.408       .  A
C918       Br919   1.916       .  S
C923        C924   1.404       .  A
C923        C928   1.399       .  A
C923        H930   1.084       .  S
C924        C925   1.410       .  A
C925        C926   1.400       .  A
C925       Br932   1.919       .  S
C926        C927   1.402       .  A
C926        H931   1.084       .  S
C927        C928   1.405       .  A
C928       Br929   1.915       .  S
C933        C934   1.403       .  A
C933        C938   1.402       .  A
C933        H940   1.083       .  S
C934        C935   1.407       .  A
C935        C936   1.400       .  A
C935       Br942   1.915       .  S
C936        C937   1.406       .  A
C936        H941   1.083       .  S
C937        C938   1.413       .  A
C938       Br939   1.919       .  S
C943        C944   1.405       .  A
C943        C948   1.397       .  A
C943        H950   1.083       .  S
C944        C945   1.414       .  A
C945        C946   1.402       .  A
C946        C947   1.401       .  A
C946        H951   1.084       .  S
C947        C948   1.405       .  A
C948       Br949   1.914       .  S
C953        C954   1.407       .  A
C953        C958   1.398       .  A
C953        H960   1.083       .  S
C954        C955   1.413       .  A
C955        C956   1.397       .  A
C955       Br962   1.921       .  S
C956        C957   1.403       .  A
C956        H961   1.084       .  S
C957        C958   1.408       .  A
C958       Br959   1.918       .  S
C963        C964   1.403       .  A
C963        C968   1.396       .  A
C963        H970   1.084       .  S
C964        C965   1.408       .  A
C965        C966   1.400       .  A
C966        C967   1.402       .  A
C966        H971   1.084       .  S
C967        C968   1.406       .  A
C968       Br969   1.916       .  S
C973        C974   1.403       .  A
C973        C978   1.398       .  A
C973        H980   1.083       .  S
C974        C975   1.408       .  A
C975        C976   1.399       .  A
C976        C977   1.405       .  A
C976        H981   1.084       .  S
C977        C978   1.411       .  A
C978       Br979   1.920       .  S
C983        C984   1.407       .  A
C983        C988   1.398       .  A
C984        C985   1.415       .  A
C985        C986   1.401       .  A
C985       Br992   1.921       .  S
C986        C987   1.400       .  A
C986        H991   1.084       .  S
C987        C988   1.403       .  A
C988       Br989   1.915       .  S
