geometry optimzed in LAMMPS
_audit_creation_date              2020-11-30 
_audit_creation_method            'lammps2cif' 
_symmetry_space_group_name_H-M    'P1' 
_symmetry_Int_Tables_number       1 
_symmetry_cell_setting            triclinic 
loop_ 
_symmetry_equiv_pos_as_xyz 
  x,y,z 
_cell_length_a                    43.13408167 
_cell_length_b                    42.662417407394344 
_cell_length_c                    34.640366476100624 
_cell_angle_alpha                 90.07254462774509 
_cell_angle_beta                  89.70465012840394 
_cell_angle_gamma                 90.17236418721964 
loop_ 
_atom_site_label 
_atom_site_type_symbol 
_atom_site_fract_x 
_atom_site_fract_y 
_atom_site_fract_z 
_atom_site_charge 
In1        In  0.87307714  0.74444412  0.34361117     1.36900
C2          C  0.82665303  0.78657315  0.00456194     0.78200
O3          O  0.85805131  0.70228533  0.04189226    -0.60300
O4          O  0.88576171  0.73405500  0.07286086    -0.51200
C5          C  0.87333803  0.70780981  0.28035812     0.70900
O6          O  0.85234363  0.72763830  0.28695888    -0.46000
C7          C  0.92501390  0.77952065  0.34464636     0.75600
O8          O  0.84814259  0.78353739  0.31270846    -0.57900
O9          O  0.92348812  0.75502384  0.98917781    -0.48000
O10         O  0.82700107  0.76474352  0.02912236    -0.54300
C11         C  0.87134848  0.70831024  0.07331900     0.85700
O12         O  0.89428109  0.70732530  0.30559311    -0.56200
O13         O  0.89984386  0.78744143  0.36036239    -0.59500
N14         N  0.85515413  0.63118088  0.11908081    -0.36000
N15         N  0.84534468  0.58463663  0.17829086    -0.56600
N16         N  0.85856852  0.63034400  0.23621512    -0.36000
N17         N  0.87002090  0.67784057  0.17706768    -0.56600
C18         C  0.85843788  0.60368382  0.09973973     0.27600
C19         C  0.86995581  0.65357528  0.09829676     0.27600
C20         C  0.86235320  0.60304305  0.25565148     0.27600
C21         C  0.87375515  0.65295868  0.25593084     0.27600
C22         C  0.83252232  0.57033568  0.14765907     0.36200
C23         C  0.83447891  0.56976579  0.20980602     0.36200
C24         C  0.86861391  0.69686690  0.14576327     0.36200
C25         C  0.86867211  0.69637093  0.20885584     0.36200
C26         C  0.87628190  0.60860325  0.06689007    -0.21300
C27         C  0.88317946  0.64014662  0.06573800    -0.21300
C28         C  0.88079234  0.60824416  0.28763397    -0.21300
C29         C  0.88761082  0.63978435  0.28816031    -0.21300
C30         C  0.81242909  0.54682297  0.15971306    -0.22300
C31         C  0.81371038  0.54643864  0.19937819    -0.22300
C32         C  0.86687279  0.72783482  0.15775343    -0.22300
C33         C  0.86696454  0.72751921  0.19766346    -0.22300
C34         C  0.84348566  0.57507750  0.10983808    -0.17700
C35         C  0.87013211  0.68607625  0.10690347    -0.17700
C36         C  0.87223004  0.68537148  0.24734328    -0.17700
C37         C  0.84707254  0.57447015  0.24666816    -0.17700
H38         H  0.88333529  0.59134680  0.04574862     0.15200
H39         H  0.89680718  0.65189379  0.04382697     0.15200
H40         H  0.88805945  0.59124604  0.30885901     0.15200
H41         H  0.90144860  0.65130630  0.30984443     0.15200
H42         H  0.79955879  0.53062499  0.14179398     0.13500
H43         H  0.80190097  0.53000531  0.21819225     0.13500
H44         H  0.86583667  0.74855991  0.13987828     0.13500
H45         H  0.86658305  0.74795821  0.21618043     0.13500
H46         H  0.84061480  0.63519815  0.14270354     0.26800
H47         H  0.84317631  0.63428864  0.21364640     0.26800
In48       In  0.87206478  0.24087946  0.01289494     1.36900
C49         C  0.82148588  0.20119352  0.34167327     0.78200
O50         O  0.85714567  0.28351170  0.31362076    -0.60300
O51         O  0.88471620  0.25129401  0.28263829    -0.51200
C52         C  0.86887727  0.27772379  0.07559996     0.70900
O53         O  0.86064965  0.28597422  0.04232363    -0.46000
C54         C  0.92494669  0.20873601  0.02145129     0.75600
O55         O  0.84106533  0.20709405  0.98038751    -0.57900
O56         O  0.92402402  0.23649588  0.34613367    -0.48000
O57         O  0.82759053  0.21746586  0.37099496    -0.54300
C58         C  0.87061834  0.27716981  0.28228634     0.85700
O59         O  0.87868475  0.24997634  0.07721377    -0.56200
O60         O  0.89834438  0.19669637  0.01887917    -0.59500
N61         N  0.85397131  0.35457422  0.12059523    -0.36000
N62         N  0.84448288  0.40053354  0.17875276    -0.56600
N63         N  0.85649268  0.35418148  0.23710422    -0.36000
N64         N  0.86822592  0.30711232  0.17899565    -0.56600
C65         C  0.85830852  0.38183331  0.10118814     0.27600
C66         C  0.86916568  0.33204130  0.10086051     0.27600
C67         C  0.86081426  0.38157504  0.25617377     0.27600
C68         C  0.87136396  0.33162938  0.25709398     0.27600
C69         C  0.83230990  0.41528514  0.14811717     0.36200
C70         C  0.83316149  0.41492090  0.21026005     0.36200
C71         C  0.86415824  0.28869719  0.14759178     0.36200
C72         C  0.86582461  0.28842090  0.21044953     0.36200
C73         C  0.87714792  0.37668952  0.06933850    -0.21300
C74         C  0.88386511  0.34517497  0.06901213    -0.21300
C75         C  0.87943898  0.37645598  0.28807924    -0.21300
C76         C  0.88574018  0.34480523  0.28893096    -0.21300
C77         C  0.81221881  0.43868545  0.16004389    -0.22300
C78         C  0.81273216  0.43843726  0.19975824    -0.22300
C79         C  0.85898563  0.25798403  0.15919040    -0.22300
C80         C  0.86018213  0.25780784  0.19905128    -0.22300
C81         C  0.84349979  0.41042438  0.11050595    -0.17700
C82         C  0.86735347  0.29963808  0.10908802    -0.17700
C83         C  0.86980180  0.29920573  0.24883774    -0.17700
C84         C  0.84558091  0.41006443  0.24714838    -0.17700
H85         H  0.88497913  0.39376750  0.04838224     0.15200
H86         H  0.89809253  0.33324777  0.04786722     0.15200
H87         H  0.88705832  0.39357380  0.30906869     0.15200
H88         H  0.89931698  0.33278344  0.31046187     0.15200
H89         H  0.79976578  0.45508763  0.14210232     0.13500
H90         H  0.80076162  0.45467742  0.21862178     0.13500
H91         H  0.85478978  0.23773563  0.14114542     0.13500
H92         H  0.85712075  0.23750195  0.21736497     0.13500
H93         H  0.83843283  0.35065839  0.14327476     0.26800
H94         H  0.84097527  0.35029977  0.21460261     0.26800
N95         N  0.83896432  0.44526400  0.01200789    -0.36000
N96         N  0.84008405  0.49244002  0.07119708    -0.56600
N97         N  0.83882374  0.53893898  0.01191267    -0.36000
N98         N  0.84293315  0.49229828  0.28603738    -0.56600
C99         C  0.83028881  0.42919608  0.04376695     0.27600
C100        C  0.83279106  0.42888253  0.31395457     0.27600
C101        C  0.82994464  0.55529752  0.04339841     0.27600
C102        C  0.83387977  0.55539102  0.31348529     0.27600
C103        C  0.85040103  0.46711614  0.09047620     0.36200
C104        C  0.85002909  0.51799523  0.09056098     0.36200
C105        C  0.85276430  0.46672714  0.26665833     0.36200
C106        C  0.85339096  0.51758938  0.26644147     0.36200
C107        C  0.81363753  0.40274656  0.03298384    -0.21300
C108        C  0.81668614  0.40213118  0.32508020    -0.21300
C109        C  0.81382743  0.58180483  0.03205965    -0.21300
C110        C  0.81744862  0.58180028  0.32465167    -0.21300
C111        C  0.86762669  0.47654518  0.12213722    -0.22300
C112        C  0.86737228  0.50890275  0.12220995    -0.22300
C113        C  0.86998502  0.47575780  0.23460745    -0.22300
C114        C  0.87040250  0.50810739  0.23449855    -0.22300
C115        C  0.84129344  0.43611868  0.08113608    -0.17700
C116        C  0.84356778  0.43580938  0.27641910    -0.17700
C117        C  0.84488015  0.54868063  0.27603604    -0.17700
C118        C  0.84089337  0.54889881  0.08090470    -0.17700
H119        H  0.80436509  0.38472076  0.05175821     0.15200
H120        H  0.80747392  0.38398317  0.30649389     0.15200
H121        H  0.80464961  0.60009335  0.05049400     0.15200
H122        H  0.80858994  0.60012584  0.30620421     0.15200
H123        H  0.87879342  0.46170793  0.14314409     0.13500
H124        H  0.87837579  0.52394932  0.14323817     0.13500
H125        H  0.88084671  0.46064189  0.21346438     0.13500
H126        H  0.88162811  0.52291864  0.21329565     0.13500
H127        H  0.85514232  0.46348312  0.01136086     0.26800
H128        H  0.85477863  0.52061943  0.01165403     0.26800
In129      In  0.76091301  0.85781036  0.00147275     1.36900
C130        C  0.80141410  0.80885622  0.33383524     0.78200
O131        O  0.73135558  0.83026044  0.29045780    -0.60300
O132        O  0.73916683  0.87840263  0.28048541    -0.51200
C133        C  0.72428272  0.85863724  0.06446482     0.70900
O134        O  0.75259460  0.85147329  0.06634193    -0.46000
C135        C  0.79392405  0.91089314  0.01008373     0.75600
O136        O  0.77865354  0.81118444  0.02451717    -0.57900
O137        O  0.80478309  0.88397940  0.32632000    -0.48000
O138        O  0.80139220  0.82980778  0.30820936    -0.54300
C139        C  0.72561385  0.85374906  0.26968114     0.85700
O140        O  0.71539456  0.86506596  0.03078062    -0.56200
O141        O  0.76535390  0.90974242  0.01742079    -0.59500
N142        N  0.64711466  0.86984387  0.10865943    -0.36000
N143        N  0.59854394  0.86543510  0.16761514    -0.56600
N144        N  0.64681458  0.85422314  0.22553752    -0.36000
N145        N  0.69461693  0.85715306  0.16768193    -0.56600
C146        C  0.62104571  0.86403304  0.08825291     0.27600
C147        C  0.67056855  0.85535452  0.08976638     0.27600
C148        C  0.62122603  0.84471031  0.24508621     0.27600
C149        C  0.67186302  0.84452817  0.24564864     0.27600
C150        C  0.58180373  0.86167004  0.13529277     0.36200
C151        C  0.58289538  0.84983269  0.19523920     0.36200
C152        C  0.71241949  0.86385568  0.13650293     0.36200
C153        C  0.71229984  0.86171376  0.19936255     0.36200
C154        C  0.62759970  0.84401252  0.05784339    -0.21300
C155        C  0.65896928  0.83887490  0.05846374    -0.21300
C156        C  0.63010073  0.82738768  0.27697768    -0.21300
C157        C  0.66199195  0.82783969  0.27780392    -0.21300
C158        C  0.55689844  0.84170549  0.14163172    -0.22300
C159        C  0.55756109  0.83420089  0.17997214    -0.22300
C160        C  0.74172745  0.87302744  0.14835159    -0.22300
C161        C  0.74163166  0.87170687  0.18825370    -0.22300
C162        C  0.59092641  0.87325552  0.09927627    -0.17700
C163        C  0.70236487  0.85920051  0.09804128    -0.17700
C164        C  0.70296151  0.85312258  0.23724034    -0.17700
C165        C  0.59022179  0.85160417  0.23447421    -0.17700
H166        H  0.61126717  0.83337570  0.03817715     0.15200
H167        H  0.67176704  0.82407195  0.03871915     0.15200
H168        H  0.61517626  0.81548928  0.29743844     0.15200
H169        H  0.67608655  0.81675168  0.29946115     0.15200
H170        H  0.54052696  0.83288683  0.12065664     0.13500
H171        H  0.54125084  0.81919520  0.19504029     0.13500
H172        H  0.76123745  0.87964856  0.13037382     0.13500
H173        H  0.76120371  0.87653603  0.20676767     0.13500
H174        H  0.64906349  0.88504901  0.13217287     0.26800
H175        H  0.64712685  0.86991441  0.20255662     0.26800
In176      In  0.25592491  0.85768925  0.33197652     1.36900
C177        C  0.21441672  0.81492466  0.00909994     0.78200
O178        O  0.29149367  0.83680928  0.03843825    -0.60300
O179        O  0.27745896  0.88250365  0.05325944    -0.51200
C180        C  0.29271379  0.85997567  0.26867329     0.70900
O181        O  0.26706969  0.84584258  0.26903912    -0.46000
C182        C  0.22080341  0.90844885  0.32083480     0.75600
O183        O  0.23869061  0.80814684  0.32097639    -0.57900
O184        O  0.23396459  0.90585677  0.01744411    -0.48000
O185        O  0.21092892  0.84224999  0.02204731    -0.54300
C186        C  0.29416746  0.85940828  0.06174554     0.85700
O187        O  0.29938880  0.87279287  0.30050072    -0.56200
O188        O  0.22723286  0.88910501  0.29462405    -0.59500
N189        N  0.37208942  0.87005150  0.10574698    -0.36000
N190        N  0.41998245  0.86929195  0.16594696    -0.56600
N191        N  0.37110634  0.86347187  0.22450166    -0.36000
N192        N  0.32378166  0.86031755  0.16506773    -0.56600
C193        C  0.39844394  0.86491911  0.08522782     0.27600
C194        C  0.34850440  0.85673258  0.08578741     0.27600
C195        C  0.39626882  0.85390074  0.24448587     0.27600
C196        C  0.34595712  0.85326653  0.24429049     0.27600
C197        C  0.43640330  0.86230570  0.13402329     0.36200
C198        C  0.43522262  0.85547397  0.19504975     0.36200
C199        C  0.30604098  0.86459687  0.13328686     0.36200
C200        C  0.30511465  0.86410413  0.19641080     0.36200
C201        C  0.39179594  0.84672669  0.05327180    -0.21300
C202        C  0.36028459  0.84205775  0.05320394    -0.21300
C203        C  0.38690755  0.83610554  0.27589112    -0.21300
C204        C  0.35516388  0.83626648  0.27620333    -0.21300
C205        C  0.46053181  0.84208726  0.14224280    -0.22300
C206        C  0.45968535  0.83759654  0.18126835    -0.22300
C207        C  0.27576727  0.87078590  0.14452393    -0.22300
C208        C  0.27522589  0.87068195  0.18446937    -0.22300
C209        C  0.42876789  0.87292461  0.09724224    -0.17700
C210        C  0.31657543  0.85984003  0.09471750    -0.17700
C211        C  0.31482986  0.85969499  0.23523576    -0.17700
C212        C  0.42750180  0.85964186  0.23398313    -0.17700
H213        H  0.40823891  0.83630632  0.03351342     0.15200
H214        H  0.34780940  0.82791764  0.03268666     0.15200
H215        H  0.40145571  0.82340545  0.29571417     0.15200
H216        H  0.34036181  0.82411747  0.29652107     0.15200
H217        H  0.47667446  0.83146198  0.12213528     0.13500
H218        H  0.47522923  0.82291779  0.19765650     0.13500
H219        H  0.25600698  0.87445973  0.12597697     0.13500
H220        H  0.25503495  0.87448408  0.20251347     0.13500
H221        H  0.37011554  0.88415041  0.13025218     0.26800
H222        H  0.37098677  0.87871120  0.20102032     0.26800
N223        N  0.46279432  0.87265476  0.99973230    -0.36000
N224        N  0.50832788  0.85362216  0.27305913    -0.56600
N225        N  0.55825056  0.87422563  0.00070232    -0.36000
N226        N  0.51060117  0.88122127  0.05816126    -0.56600
C227        C  0.44559232  0.86692297  0.30279866     0.27600
C228        C  0.44754090  0.88556366  0.02975794     0.27600
C229        C  0.57179337  0.86029064  0.30283772     0.27600
C230        C  0.57466997  0.88554019  0.03063703     0.27600
C231        C  0.48415281  0.86615744  0.25393504     0.36200
C232        C  0.53395679  0.86299166  0.25373186     0.36200
C233        C  0.48530033  0.88671440  0.08023080     0.36200
C234        C  0.53543408  0.88785065  0.08035282     0.36200
C235        C  0.42243773  0.88678853  0.31593106    -0.21300
C236        C  0.42295293  0.90345197  0.01695573    -0.21300
C237        C  0.59563314  0.87956697  0.31525416    -0.21300
C238        C  0.60129984  0.90039932  0.01744511    -0.21300
C239        C  0.49448113  0.88582459  0.22485079    -0.22300
C240        C  0.52617206  0.88387014  0.22475896    -0.22300
C241        C  0.49402070  0.89985626  0.11513446    -0.22300
C242        C  0.52585398  0.90059069  0.11520904    -0.22300
C243        C  0.45287901  0.86127697  0.26409586    -0.17700
C244        C  0.45458268  0.88003282  0.06848611    -0.17700
C245        C  0.56644644  0.88128094  0.06951433    -0.17700
C246        C  0.56441810  0.85475528  0.26422515    -0.17700
H247        H  0.40714296  0.90116995  0.29879697     0.15200
H248        H  0.40687097  0.91690777  0.03435595     0.15200
H249        H  0.61110388  0.89361741  0.29763565     0.15200
H250        H  0.61874609  0.91222599  0.03450220     0.15200
H251        H  0.48060316  0.90069706  0.20657689     0.13500
H252        H  0.54178012  0.89713183  0.20648372     0.13500
H253        H  0.47902221  0.90848673  0.13783257     0.13500
H254        H  0.54030219  0.90959951  0.13811930     0.13500
H255        H  0.48070193  0.85631901  0.00139696     0.26800
H256        H  0.53885387  0.85965006  0.00239438     0.26800
In257      In  0.75679266  0.12860480  0.34170138     1.36900
C258        C  0.79843537  0.17775333  0.00689631     0.78200
O259        O  0.72019217  0.15380197  0.04442729    -0.60300
O260        O  0.74002620  0.11241202  0.06605421    -0.51200
C261        C  0.71915741  0.12965138  0.27885742     0.70900
O262        O  0.74700963  0.13842755  0.27761721    -0.46000
C263        C  0.79273643  0.07726457  0.34209403     0.75600
O264        O  0.77896487  0.17167421  0.36898045    -0.57900
O265        O  0.79690537  0.10292232  0.02878493    -0.48000
O266        O  0.79735092  0.15700560  0.98105837    -0.54300
C267        C  0.72035185  0.13384514  0.07133054     0.85700
O268        O  0.71093087  0.12038639  0.31189731    -0.56200
O269        O  0.76591850  0.07716951  0.32794501    -0.59500
N270        N  0.64158073  0.12883243  0.11635902    -0.36000
N271        N  0.59254241  0.12515872  0.17708136    -0.56600
N272        N  0.64070931  0.12500570  0.23529981    -0.36000
N273        N  0.68930039  0.13188251  0.17501612    -0.56600
C274        C  0.61566834  0.13767058  0.09733353     0.27600
C275        C  0.66617340  0.14072902  0.09660135     0.27600
C276        C  0.61514122  0.13206367  0.25664234     0.27600
C277        C  0.66549789  0.13629141  0.25474214     0.27600
C278        C  0.57758983  0.13773409  0.14701964     0.36200
C279        C  0.57669083  0.13484624  0.20834099     0.36200
C280        C  0.70748020  0.12792021  0.14320975     0.36200
C281        C  0.70725508  0.12681752  0.20646341     0.36200
C282        C  0.62368417  0.15660453  0.06651335    -0.21300
C283        C  0.65545428  0.15817052  0.06562660    -0.21300
C284        C  0.62367001  0.14951332  0.28855106    -0.21300
C285        C  0.65540486  0.15195356  0.28752764    -0.21300
C286        C  0.55391131  0.15734930  0.15910205    -0.22300
C287        C  0.55336733  0.15554451  0.19843960    -0.22300
C288        C  0.73734511  0.12054104  0.15461368    -0.22300
C289        C  0.73715286  0.11962694  0.19451716    -0.22300
C290        C  0.58483162  0.13082110  0.10877795    -0.17700
C291        C  0.69775840  0.13431520  0.10470620    -0.17700
C292        C  0.69706062  0.13081973  0.24542200    -0.17700
C293        C  0.58406800  0.12593921  0.24583630    -0.17700
H294        H  0.60814601  0.16904529  0.04758444     0.15200
H295        H  0.66863446  0.17213907  0.04548151     0.15200
H296        H  0.60845236  0.16066896  0.30921963     0.15200
H297        H  0.66954354  0.16478914  0.30779329     0.15200
H298        H  0.53867755  0.17130403  0.14135293     0.13500
H299        H  0.53784586  0.16810456  0.21757731     0.13500
H300        H  0.75744387  0.11694612  0.13637320     0.13500
H301        H  0.75699140  0.11465526  0.21241741     0.13500
H302        H  0.64238658  0.11311378  0.13936044     0.26800
H303        H  0.64144104  0.11071851  0.21086929     0.26800
In304      In  0.24910648  0.12555639  0.01277368     1.36900
C305        C  0.21011293  0.17661924  0.34154676     0.78200
O306        O  0.28136814  0.15368702  0.30749922    -0.60300
O307        O  0.26670721  0.10905680  0.28882473    -0.51200
C308        C  0.28609620  0.12864107  0.07577592     0.70900
O309        O  0.25726500  0.13309937  0.07751690    -0.46000
C310        C  0.21357422  0.07400613  0.01516146     0.75600
O311        O  0.22285175  0.16488576  0.04155488    -0.57900
O312        O  0.24330916  0.07407821  0.35044327    -0.48000
O313        O  0.21166302  0.15572299  0.31582429    -0.54300
C314        C  0.28389459  0.13244584  0.28237767     0.85700
O315        O  0.29551676  0.12232017  0.04212540    -0.56200
O316        O  0.20460241  0.09985562  0.00203174    -0.59500
N317        N  0.36425327  0.12884767  0.12024352    -0.36000
N318        N  0.41174689  0.13127500  0.17926026    -0.56600
N319        N  0.36342423  0.13065850  0.23878163    -0.36000
N320        N  0.31551481  0.13247781  0.17968531    -0.56600
C321        C  0.38955609  0.13835849  0.09991032     0.27600
C322        C  0.33905413  0.13906725  0.10086704     0.27600
C323        C  0.38899603  0.13815205  0.25949887     0.27600
C324        C  0.33837378  0.14047437  0.25922468     0.27600
C325        C  0.42818234  0.14122047  0.14860480     0.36200
C326        C  0.42754273  0.14135118  0.21018140     0.36200
C327        C  0.29786818  0.12621367  0.14826382     0.36200
C328        C  0.29767040  0.12712775  0.21138204     0.36200
C329        C  0.38035774  0.15618801  0.06867534    -0.21300
C330        C  0.34851140  0.15643825  0.06911190    -0.21300
C331        C  0.38028499  0.15418629  0.29246145    -0.21300
C332        C  0.34845235  0.15523110  0.29266099    -0.21300
C333        C  0.45288349  0.15988303  0.15989897    -0.22300
C334        C  0.45247775  0.15995129  0.19935797    -0.22300
C335        C  0.26851905  0.11681852  0.16015065    -0.22300
C336        C  0.26833164  0.11764462  0.20000600    -0.22300
C337        C  0.42080706  0.13330849  0.11063946    -0.17700
C338        C  0.30785613  0.13115880  0.10946464    -0.17700
C339        C  0.30696824  0.13377457  0.24989747    -0.17700
C340        C  0.42007394  0.13258972  0.24787745    -0.17700
H341        H  0.39511429  0.16866720  0.04856486     0.15200
H342        H  0.33387650  0.16879588  0.04903134     0.15200
H343        H  0.39539363  0.16501419  0.31339969     0.15200
H344        H  0.33468148  0.16672304  0.31441845     0.15200
H345        H  0.46939243  0.17206752  0.14164016     0.13500
H346        H  0.46874167  0.17195025  0.21797043     0.13500
H347        H  0.24902266  0.11035644  0.14233427     0.13500
H348        H  0.24859054  0.11239654  0.21828042     0.13500
H349        H  0.36414589  0.11357085  0.14372421     0.26800
H350        H  0.36309078  0.11665192  0.21413174     0.26800
N351        N  0.45497640  0.13442009  0.01197617    -0.36000
N352        N  0.50220423  0.12653380  0.28594122    -0.56600
N353        N  0.55110145  0.13436564  0.01101638    -0.36000
N354        N  0.50278489  0.13151219  0.07062849    -0.56600
C355        C  0.43857533  0.11837837  0.31472107     0.27600
C356        C  0.43937495  0.12283139  0.04255300     0.27600
C357        C  0.56551488  0.11364381  0.31362050     0.27600
C358        C  0.56610912  0.12154361  0.04099252     0.27600
C359        C  0.47672215  0.12013005  0.26468276     0.36200
C360        C  0.52684818  0.11739814  0.26443626     0.36200
C361        C  0.47760538  0.12329247  0.09179224     0.36200
C362        C  0.52772096  0.12203861  0.09097232     0.36200
C363        C  0.41408395  0.09929086  0.32588433    -0.21300
C364        C  0.41582770  0.10298873  0.03061798    -0.21300
C365        C  0.58960835  0.09426665  0.32468650    -0.21300
C366        C  0.59010450  0.10263654  0.02814288    -0.21300
C367        C  0.48506501  0.10425667  0.23136313    -0.22300
C368        C  0.51683058  0.10249777  0.23121717    -0.22300
C369        C  0.48648846  0.10602959  0.12363801    -0.22300
C370        C  0.51828112  0.10519550  0.12309290    -0.22300
C371        C  0.44588472  0.12640115  0.27665063    -0.17700
C372        C  0.44660255  0.12934801  0.08095622    -0.17700
C373        C  0.55888711  0.12730256  0.07965177    -0.17700
C374        C  0.55824041  0.12134470  0.27545946    -0.17700
H375        H  0.39786516  0.08709125  0.30740964     0.15200
H376        H  0.40013458  0.08946878  0.04855940     0.15200
H377        H  0.60550900  0.08163329  0.30612392     0.15200
H378        H  0.60571241  0.08874208  0.04545102     0.15200
H379        H  0.46971277  0.09374980  0.21046164     0.13500
H380        H  0.53095033  0.09053262  0.21002960     0.13500
H381        H  0.47150248  0.09409023  0.14393538     0.13500
H382        H  0.53283170  0.09258764  0.14300992     0.13500
H383        H  0.47249748  0.15134623  0.01259751     0.26800
H384        H  0.53351677  0.15109096  0.01246289     0.26800
In385      In  0.14290207  0.74940986  0.01157433     1.36900
C386        C  0.18997155  0.78713736  0.34335334     0.78200
O387        O  0.16190187  0.70605848  0.31067983    -0.60300
O388        O  0.12842365  0.73369006  0.28248888    -0.51200
C389        C  0.14477236  0.71217070  0.07469182     0.70900
O390        O  0.16358229  0.73446092  0.06911155    -0.46000
C391        C  0.09143435  0.78486918  0.00960928     0.75600
O392        O  0.16574520  0.79432450  0.03169717    -0.57900
O393        O  0.09136586  0.75571487  0.35598513    -0.48000
O394        O  0.19005525  0.76232550  0.32344688    -0.54300
C395        C  0.14605145  0.71022951  0.28069726     0.85700
O396        O  0.12408534  0.71017592  0.04918043    -0.56200
O397        O  0.11482027  0.78930101  0.98841826    -0.59500
N398        N  0.16369057  0.63412294  0.23554154    -0.36000
N399        N  0.17815003  0.58906549  0.17713892    -0.56600
N400        N  0.16527415  0.63478997  0.11820180    -0.36000
N401        N  0.14919227  0.68077083  0.17708127    -0.56600
C402        C  0.16054016  0.60664957  0.25476779     0.27600
C403        C  0.14777265  0.65597447  0.25559449     0.27600
C404        C  0.16343722  0.60722977  0.09860668     0.27600
C405        C  0.14928263  0.65657928  0.09797914     0.27600
C406        C  0.18956040  0.57457095  0.20847088     0.36200
C407        C  0.19054145  0.57466712  0.14617852     0.36200
C408        C  0.15021014  0.69943619  0.20874594     0.36200
C409        C  0.15080169  0.69975626  0.14579228     0.36200
C410        C  0.14156714  0.61099913  0.28677913    -0.21300
C411        C  0.13392397  0.64231997  0.28761909    -0.21300
C412        C  0.14558796  0.61149760  0.06593948    -0.21300
C413        C  0.13702822  0.64259055  0.06527890    -0.21300
C414        C  0.21036775  0.55147356  0.19750983    -0.22300
C415        C  0.21096908  0.55150726  0.15779094    -0.22300
C416        C  0.15219489  0.73054494  0.19758936    -0.22300
C417        C  0.15231681  0.73077891  0.15771745    -0.22300
C418        C  0.17688186  0.57881722  0.24561346    -0.17700
C419        C  0.14778077  0.68832036  0.24722539    -0.17700
C420        C  0.14799733  0.68909308  0.10708176    -0.17700
C421        C  0.17912553  0.57902619  0.10861146    -0.17700
H422        H  0.13453539  0.59361999  0.30779465     0.15200
H423        H  0.11973388  0.65382628  0.30917067     0.15200
H424        H  0.13923609  0.59399417  0.04483268     0.15200
H425        H  0.12264572  0.65324245  0.04365493     0.15200
H426        H  0.22242228  0.53520610  0.21605227     0.13500
H427        H  0.22364419  0.53529123  0.13962232     0.13500
H428        H  0.15306693  0.75097125  0.21609263     0.13500
H429        H  0.15296160  0.75149558  0.13976973     0.13500
H430        H  0.17903346  0.63877108  0.21289131     0.26800
H431        H  0.17951203  0.63941045  0.14176951     0.26800
In432      In  0.14171785  0.24479933  0.34330538     1.36900
C433        C  0.18880424  0.20127326  0.01068592     0.78200
O434        O  0.16982395  0.27336449  0.05556486    -0.60300
O435        O  0.12086898  0.27120983  0.06141194    -0.51200
C436        C  0.14362510  0.28184414  0.28003058     0.70900
O437        O  0.16436944  0.26200599  0.28759042    -0.46000
C438        C  0.09044223  0.20893668  0.34092607     0.73200
O439        O  0.16686899  0.20435726  0.31488484    -0.57900
O440        O  0.09273801  0.23710628  0.99771198    -0.48000
O441        O  0.17836609  0.21322903  0.04128795    -0.54300
C442        C  0.14615034  0.28186795  0.07429188     0.85700
O443        O  0.12180553  0.28233287  0.30442171    -0.56200
O444        O  0.09189686  0.23541894  0.32501566    -0.59500
N445        N  0.16154822  0.35866318  0.23519673    -0.36000
N446        N  0.17733448  0.40384076  0.17684225    -0.56600
N447        N  0.16489489  0.35839357  0.11829986    -0.36000
N448        N  0.14912364  0.31201792  0.17699387    -0.56600
C449        C  0.15857229  0.38626027  0.25426969     0.27600
C450        C  0.14519958  0.33677978  0.25500169     0.27600
C451        C  0.16290171  0.38575259  0.09862352     0.27600
C452        C  0.14898582  0.33653521  0.09818892     0.27600
C453        C  0.18853499  0.41824577  0.20841303     0.36200
C454        C  0.19035224  0.41802289  0.14607441     0.36200
C455        C  0.15024248  0.29324919  0.20847396     0.36200
C456        C  0.15103247  0.29331225  0.14549894     0.36200
C457        C  0.13930685  0.38205362  0.28599645    -0.21300
C458        C  0.13122693  0.35076471  0.28678275    -0.21300
C459        C  0.14476785  0.38131660  0.06610020    -0.21300
C460        C  0.13640920  0.35007325  0.06553622    -0.21300
C461        C  0.20983367  0.44113758  0.19782264    -0.22300
C462        C  0.21097353  0.44101386  0.15807275    -0.22300
C463        C  0.15253649  0.26220303  0.19684877    -0.22300
C464        C  0.15309449  0.26226451  0.15688136    -0.22300
C465        C  0.17534790  0.41406667  0.24534320    -0.17700
C466        C  0.14592854  0.30421512  0.24689407    -0.17700
C467        C  0.14822300  0.30425082  0.10706577    -0.17700
C468        C  0.17925071  0.41360457  0.10828866    -0.17700
H469        H  0.13237984  0.39950963  0.30697480     0.15200
H470        H  0.11671259  0.33982323  0.30841105     0.15200
H471        H  0.13861447  0.39862183  0.04472152     0.15200
H472        H  0.12253235  0.33855728  0.04382156     0.15200
H473        H  0.22191964  0.45730936  0.21660519     0.13500
H474        H  0.22409054  0.45707680  0.14012448     0.13500
H475        H  0.15285395  0.24163914  0.21508687     0.13500
H476        H  0.15410390  0.24182784  0.13837067     0.13500
H477        H  0.17725180  0.35401346  0.21295152     0.26800
H478        H  0.17948377  0.35381739  0.14151571     0.26800
N479        N  0.18268562  0.54316309  0.01087363    -0.36000
N480        N  0.17963000  0.49642863  0.28468779    -0.56600
N481        N  0.18527520  0.44945684  0.01031796    -0.36000
N482        N  0.18464825  0.49621340  0.07027416    -0.56600
C483        C  0.18935901  0.55998991  0.31261529     0.27600
C484        C  0.19258746  0.55912785  0.04208737     0.27600
C485        C  0.18772370  0.43305195  0.31244378     0.27600
C486        C  0.19356369  0.43277105  0.04162032     0.27600
C487        C  0.17046282  0.52196517  0.26486027     0.36200
C488        C  0.16979125  0.47110490  0.26472667     0.36200
C489        C  0.17381616  0.52151535  0.08954829     0.36200
C490        C  0.17404886  0.47061024  0.08910440     0.36200
C491        C  0.20480239  0.58701813  0.32402805    -0.21300
C492        C  0.20947673  0.58517310  0.03049123    -0.21300
C493        C  0.20378015  0.40650937  0.32369107    -0.21300
C494        C  0.20874088  0.40570183  0.02994604    -0.21300
C495        C  0.15426936  0.51285232  0.23222647    -0.22300
C496        C  0.15389677  0.48054415  0.23210151    -0.22300
C497        C  0.15588755  0.51201163  0.12070004    -0.22300
C498        C  0.15596002  0.47965355  0.12035862    -0.22300
C499        C  0.17921475  0.55297025  0.27483085    -0.17700
C500        C  0.18210716  0.55270269  0.07979105    -0.17700
C501        C  0.18276325  0.43956505  0.07928164    -0.17700
C502        C  0.17774239  0.43996717  0.27465470    -0.17700
H503        H  0.21368530  0.60549143  0.30562247     0.15200
H504        H  0.21961096  0.60298510  0.04881152     0.15200
H505        H  0.21308001  0.38833923  0.30517606     0.15200
H506        H  0.21712832  0.38699589  0.04816300     0.15200
H507        H  0.14402461  0.52788222  0.21071252     0.13500
H508        H  0.14334542  0.46573425  0.21047125     0.13500
H509        H  0.14394040  0.52682509  0.14123878     0.13500
H510        H  0.14407804  0.46452683  0.14064831     0.13500
H511        H  0.16621879  0.52518064  0.01109911     0.26800
H512        H  0.16981025  0.46818179  0.01051750     0.26800
N513        N  0.14277063  0.94646740  0.96614031    -0.36000
N514        N  0.18782445  0.99066225  0.99694147    -0.56600
N515        N  0.13853805  0.03653646  0.00117725    -0.36000
N516        N  0.07909222  0.99192732  0.98523120    -0.56600
C517        C  0.16793130  0.92762375  0.96612374     0.27600
C518        C  0.11797141  0.92892714  0.95584991     0.27600
C519        C  0.16151735  0.05032280  0.02129724     0.27600
C520        C  0.11184507  0.05116153  0.01103572     0.27600
C521        C  0.20725731  0.96662421  0.98974853     0.36200
C522        C  0.20551499  0.01630339  0.00330265     0.36200
C523        C  0.08213665  0.97124822  0.95602743     0.36200
C524        C  0.08045143  0.02054719  0.96848795     0.36200
C525        C  0.15896639  0.89802233  0.95320027    -0.21300
C526        C  0.12757946  0.89908737  0.94605011    -0.21300
C527        C  0.14919140  0.07291972  0.04569728    -0.21300
C528        C  0.11760055  0.07291792  0.03991400    -0.21300
C529        C  0.23770802  0.97689280  0.99221980    -0.22300
C530        C  0.23663306  0.00854996  0.99987555    -0.22300
C531        C  0.08725807  0.98667233  0.92135871    -0.22300
C532        C  0.08533641  0.01822613  0.92916454    -0.22300
C533        C  0.19805324  0.93579454  0.97966768    -0.17700
C534        C  0.08708901  0.93912287  0.96150064    -0.17700
C535        C  0.08427440  0.04819780  0.98945252    -0.17700
C536        C  0.19342898  0.04582191  0.01420686    -0.17700
H537        H  0.17296656  0.87718838  0.95044037     0.15200
H538        H  0.11319821  0.87958563  0.93711408     0.15200
H539        H  0.16183364  0.08842649  0.06476403     0.15200
H540        H  0.10116030  0.08856602  0.05356110     0.15200
H541        H  0.25851395  0.96323111  0.98762788     0.13500
H542        H  0.25664860  0.02356330  0.00320968     0.13500
H543        H  0.09261970  0.97609895  0.89371315     0.13500
H544        H  0.08948494  0.03723457  0.90911250     0.13500
H545        H  0.14111622  0.96909811  0.97686111     0.26800
H546        H  0.14153624  0.02190402  0.97733765     0.26800
N547        N  0.96210753  0.13236699  0.02054795    -0.36000
N548        N  0.00874030  0.18056212  0.01677519    -0.56600
N549        N  0.05408061  0.13096853  0.00268427    -0.36000
N550        N  0.00602756  0.08363753  0.00378649    -0.56600
C551        C  0.94760780  0.15708890  0.03665737     0.27600
C552        C  0.94690970  0.10636135  0.03260456     0.27600
C553        C  0.07229580  0.15669575  0.99826209     0.27600
C554        C  0.07021946  0.10596698  0.98882988     0.27600
C555        C  0.98372464  0.19957809  0.01982699     0.36200
C556        C  0.03418156  0.19906026  0.01487204     0.36200
C557        C  0.97894072  0.06878697  0.99722146     0.36200
C558        C  0.02833119  0.06649379  0.98660820     0.36200
C559        C  0.92367970  0.14666892  0.06039353    -0.21300
C560        C  0.92339404  0.11452149  0.05805239    -0.21300
C561        C  0.10002465  0.14789137  0.98074691    -0.21300
C562        C  0.09858645  0.11613737  0.97459288    -0.21300
C563        C  0.99335038  0.23057313  0.01987722    -0.22300
C564        C  0.02526974  0.23022717  0.01761590    -0.22300
C565        C  0.98365629  0.04283056  0.97412592    -0.22300
C566        C  0.01492477  0.04102517  0.96785813    -0.22300
C567        C  0.95303774  0.18861320  0.02632678    -0.17700
C568        C  0.95106290  0.07640929  0.01628688    -0.17700
C569        C  0.06027924  0.07405732  0.98832784    -0.17700
C570        C  0.06496961  0.18809086  0.00913381    -0.17700
H571        H  0.90756810  0.16082924  0.07688088     0.15200
H572        H  0.90675109  0.09907665  0.07182405     0.15200
H573        H  0.11913654  0.16288996  0.97219550     0.15200
H574        H  0.11631226  0.10213475  0.96068303     0.15200
H575        H  0.97941734  0.25138820  0.02326536     0.13500
H576        H  0.03988652  0.25083146  0.01757796     0.13500
H577        H  0.96645295  0.02652239  0.96347180     0.13500
H578        H  0.02542297  0.02355635  0.94968802     0.13500
H579        H  0.97797597  0.13361100  0.99777946     0.26800
H580        H  0.03333529  0.13020201  0.01796047     0.26800
N581        N  0.05354971  0.86161171  0.99170795    -0.36000
N582        N  0.00719894  0.90985646  0.99472306    -0.56600
N583        N  0.96069988  0.85996104  0.00659156    -0.36000
N584        N  0.00802109  0.81240471  0.00540750    -0.56600
C585        C  0.06928843  0.88902194  0.99572067     0.27600
C586        C  0.07064489  0.83903640  0.00892879     0.27600
C587        C  0.94330877  0.88509912  0.99716909     0.27600
C588        C  0.94421800  0.83430122  0.99611704     0.27600
C589        C  0.02946170  0.92522564  0.97438407     0.36200
C590        C  0.98069709  0.92623563  0.99057391     0.36200
C591        C  0.03369354  0.79438627  0.00673805     0.36200
C592        C  0.98329703  0.79285725  0.00656272     0.36200
C593        C  0.09549964  0.88409469  0.01787187    -0.21300
C594        C  0.09682781  0.85244062  0.02522953    -0.21300
C595        C  0.91669942  0.87547047  0.97823916    -0.21300
C596        C  0.91694229  0.84337309  0.97831748    -0.21300
C597        C  0.01626168  0.95048386  0.95531821    -0.22300
C598        C  0.98554995  0.95134030  0.96605298    -0.22300
C599        C  0.02525466  0.76301387  0.00833924    -0.22300
C600        C  0.99327317  0.76207534  0.00871665    -0.22300
C601        C  0.06148804  0.91738842  0.97660354    -0.17700
C602        C  0.06429298  0.80640194  0.00849464    -0.17700
C603        C  0.95214374  0.80282131  0.00360591    -0.17700
C604        C  0.95141003  0.91654279  0.00467935    -0.17700
H605        H  0.11247893  0.90135658  0.02672111     0.15200
H606        H  0.11496028  0.84060171  0.04096604     0.15200
H607        H  0.89896507  0.89004305  0.96557509     0.15200
H608        H  0.89925192  0.82835907  0.96610663     0.15200
H609        H  0.02679254  0.96632039  0.93487661     0.13500
H610        H  0.96834510  0.96744176  0.95519905     0.13500
H611        H  0.04036368  0.74286205  0.00952098     0.13500
H612        H  0.97917170  0.74108723  0.00971782     0.13500
H613        H  0.03428091  0.85804546  0.97411391     0.26800
H614        H  0.98090036  0.86056149  0.02299448     0.26800
N615        N  0.86947991  0.04358786  0.01547118    -0.36000
N616        N  0.91706270  0.99656700  0.01715941    -0.56600
N617        N  0.87042420  0.94865345  0.01256118    -0.36000
N618        N  0.82166662  0.99568366  0.01378216    -0.56600
C619        C  0.89535073  0.06015966  0.00645067     0.27600
C620        C  0.84506561  0.06032631  0.00284202     0.27600
C621        C  0.89579738  0.93224305  0.02324055     0.27600
C622        C  0.84550108  0.93230635  0.02517444     0.27600
C623        C  0.93266301  0.02171228  0.03037785     0.36200
C624        C  0.93505475  0.97154781  0.02420299     0.36200
C625        C  0.80294800  0.02092668  0.01056818     0.36200
C626        C  0.80339341  0.96989520  0.01157764     0.36200
C627        C  0.88731447  0.08723045  0.98682569    -0.21300
C628        C  0.85552611  0.08760035  0.98513202    -0.21300
C629        C  0.88702528  0.90636943  0.04483122    -0.21300
C630        C  0.85520171  0.90608692  0.04547664    -0.21300
C631        C  0.95977728  0.01238716  0.04834426    -0.22300
C632        C  0.96146192  0.98041455  0.04402033    -0.22300
C633        C  0.77244620  0.01114666  0.00691186    -0.22300
C634        C  0.77279188  0.97885918  0.00670566    -0.22300
C635        C  0.92556426  0.05247332  0.01883409    -0.17700
C636        C  0.81349645  0.05233635  0.00782930    -0.17700
C637        C  0.81432298  0.93877028  0.01588007    -0.17700
C638        C  0.92667448  0.94075050  0.01439836    -0.17700
H639        H  0.90263394  0.10523209  0.97566685     0.15200
H640        H  0.84166457  0.10576628  0.97199198     0.15200
H641        H  0.90200721  0.88940999  0.05847963     0.15200
H642        H  0.84075849  0.88858107  0.05935916     0.15200
H643        H  0.97728486  0.02725018  0.06122377     0.13500
H644        H  0.97975105  0.96543446  0.05456458     0.13500
H645        H  0.75205901  0.02549764  0.00333592     0.13500
H646        H  0.75257597  0.96408335  0.00371361     0.13500
H647        H  0.86836703  0.02395209  0.03329481     0.26800
H648        H  0.87014589  0.96774711  0.99377700     0.26800
In649      In  0.87405327  0.74326000  0.67674616     1.36900
C650        C  0.82581586  0.78481461  0.33626706     0.78200
O651        O  0.85659071  0.70079477  0.37460971    -0.60300
O652        O  0.88080782  0.73394891  0.40790781    -0.51200
C653        C  0.87235996  0.70583815  0.61404933     0.70900
O654        O  0.85313498  0.72754047  0.61979523    -0.46000
C655        C  0.92608794  0.77829572  0.67480845     0.75600
O656        O  0.84971001  0.78362599  0.64786083    -0.57900
O657        O  0.92434223  0.75264324  0.32966345    -0.48000
O658        O  0.82700669  0.76479021  0.36299997    -0.54300
C659        C  0.86752465  0.70762612  0.40724298     0.85700
O660        O  0.89265448  0.70383163  0.63995440    -0.56200
O661        O  0.90117182  0.78647320  0.69094357    -0.59500
N662        N  0.85262454  0.63025782  0.45250064    -0.36000
N663        N  0.84342387  0.58323180  0.51135970    -0.56600
N664        N  0.85645335  0.62846777  0.56922608    -0.36000
N665        N  0.86578319  0.67670731  0.51072867    -0.56600
C666        C  0.85800124  0.60285770  0.43382911     0.27600
C667        C  0.86736552  0.65307679  0.43247421     0.27600
C668        C  0.85990790  0.60106292  0.58854692     0.27600
C669        C  0.87195961  0.65089120  0.58893219     0.27600
C670        C  0.83145142  0.56892885  0.48026971     0.36200
C671        C  0.83216491  0.56806382  0.54240189     0.36200
C672        C  0.86315399  0.69592464  0.47973454     0.36200
C673        C  0.86474027  0.69483388  0.54284094     0.36200
C674        C  0.87721980  0.60825883  0.40229309    -0.21300
C675        C  0.88282210  0.64006271  0.40119020    -0.21300
C676        C  0.87856218  0.60587503  0.62037007    -0.21300
C677        C  0.88593575  0.63730031  0.62087595    -0.21300
C678        C  0.81141362  0.54509520  0.49145494    -0.22300
C679        C  0.81189942  0.54451928  0.53116458    -0.22300
C680        C  0.86044742  0.72667600  0.49218925    -0.22300
C681        C  0.86162007  0.72601887  0.53209026    -0.22300
C682        C  0.84339588  0.57395774  0.44306067    -0.17700
C683        C  0.86563286  0.68546863  0.44081690    -0.17700
C684        C  0.87011186  0.68349360  0.58092174    -0.17700
C685        C  0.84417216  0.57275523  0.57955702    -0.17700
H686        H  0.88584279  0.59117175  0.38183057     0.15200
H687        H  0.89689708  0.65224180  0.38004516     0.15200
H688        H  0.88564446  0.58868349  0.64145457     0.15200
H689        H  0.90010936  0.64842662  0.64249974     0.15200
H690        H  0.79917963  0.52879744  0.47298665     0.13500
H691        H  0.79999371  0.52778686  0.54947366     0.13500
H692        H  0.85854027  0.74750017  0.47460434     0.13500
H693        H  0.86124022  0.74636727  0.55072977     0.13500
H694        H  0.83681652  0.63380477  0.47497684     0.26800
H695        H  0.84085711  0.63262421  0.54693819     0.26800
In696      In  0.87107398  0.23998760  0.34530465     1.36900
C697        C  0.82397228  0.19885852  0.67451774     0.78200
O698        O  0.85343457  0.27968303  0.64454167    -0.60300
O699        O  0.88899786  0.25265665  0.61884567    -0.51200
C700        C  0.87039127  0.27641558  0.40886668     0.70900
O701        O  0.85854772  0.28395706  0.37704985    -0.46000
C702        C  0.92391631  0.20724103  0.35164231     0.75600
O703        O  0.83967986  0.20579447  0.31378348    -0.57900
O704        O  0.92423397  0.23583382  0.67802727    -0.48000
O705        O  0.82714794  0.21791807  0.70194808    -0.54300
C706        C  0.87111191  0.27588763  0.61588439     0.85700
O707        O  0.88248740  0.24954248  0.40870554    -0.56200
O708        O  0.89704650  0.19564329  0.35307249    -0.59500
N709        N  0.85587121  0.35320900  0.45435171    -0.36000
N710        N  0.84419557  0.39913399  0.51223812    -0.56600
N711        N  0.85667915  0.35284914  0.57053481    -0.36000
N712        N  0.87084535  0.30582495  0.51265256    -0.56600
C713        C  0.85965314  0.38054113  0.43474248     0.27600
C714        C  0.87106563  0.33072611  0.43435671     0.27600
C715        C  0.85964846  0.38020118  0.59017704     0.27600
C716        C  0.87113629  0.33043853  0.59127223     0.27600
C717        C  0.83275825  0.41406430  0.48128962     0.36200
C718        C  0.83238571  0.41347160  0.54351873     0.36200
C719        C  0.86839996  0.28711026  0.48122184     0.36200
C720        C  0.86905483  0.28706225  0.54409670     0.36200
C721        C  0.87823656  0.37539236  0.40262333    -0.21300
C722        C  0.88509078  0.34390033  0.40212764    -0.21300
C723        C  0.87713297  0.37517206  0.62310336    -0.21300
C724        C  0.88382444  0.34363575  0.62416344    -0.21300
C725        C  0.81261039  0.43759541  0.49278511    -0.22300
C726        C  0.81230290  0.43716675  0.53251057    -0.22300
C727        C  0.86545490  0.25609780  0.49281505    -0.22300
C728        C  0.86594557  0.25608972  0.53268958    -0.22300
C729        C  0.84456232  0.40919453  0.44389483    -0.17700
C730        C  0.87009999  0.29823876  0.44263930    -0.17700
C731        C  0.87092548  0.29803855  0.58262632    -0.17700
C732        C  0.84419207  0.40854173  0.58077001    -0.17700
H733        H  0.88567387  0.39240941  0.38137786     0.15200
H734        H  0.89891514  0.33196727  0.38055797     0.15200
H735        H  0.88367963  0.39224036  0.64469540     0.15200
H736        H  0.89664117  0.33168923  0.64645917     0.15200
H737        H  0.80062003  0.45418329  0.47460892     0.13500
H738        H  0.80008163  0.45345006  0.55107143     0.13500
H739        H  0.86301372  0.23556402  0.47475820     0.13500
H740        H  0.86400453  0.23566914  0.55105018     0.13500
H741        H  0.84065364  0.34912348  0.47729727     0.26800
H742        H  0.84222641  0.34877230  0.54703106     0.26800
N743        N  0.84173358  0.44492241  0.34550677    -0.36000
N744        N  0.84102243  0.49151568  0.40447267    -0.56600
N745        N  0.84209262  0.53885001  0.34491528    -0.36000
N746        N  0.83995602  0.49076620  0.61911155    -0.56600
C747        C  0.83257997  0.42834348  0.37669502     0.27600
C748        C  0.83052632  0.42754376  0.64747217     0.27600
C749        C  0.83207091  0.55477418  0.37611394     0.27600
C750        C  0.83029434  0.55400020  0.64636478     0.27600
C751        C  0.85113130  0.46624123  0.42414910     0.36200
C752        C  0.85084740  0.51713467  0.42379772     0.36200
C753        C  0.85070087  0.46526973  0.60036233     0.36200
C754        C  0.85049658  0.51608917  0.59972516     0.36200
C755        C  0.81660481  0.40176475  0.36493048    -0.21300
C756        C  0.81487708  0.40056716  0.65875023    -0.21300
C757        C  0.81616826  0.58134044  0.36445106    -0.21300
C758        C  0.81420455  0.58069557  0.65729697    -0.21300
C759        C  0.86800321  0.47580967  0.45601756    -0.22300
C760        C  0.86780115  0.50816166  0.45581511    -0.22300
C761        C  0.86862246  0.47437411  0.56894093    -0.22300
C762        C  0.86845630  0.50672540  0.56851312    -0.22300
C763        C  0.84260980  0.43509042  0.41451710    -0.17700
C764        C  0.84160918  0.43432598  0.61000960    -0.17700
C765        C  0.84148556  0.54708070  0.60897570    -0.17700
C766        C  0.84189460  0.54803273  0.41391257    -0.17700
H767        H  0.80725271  0.38334617  0.38305689     0.15200
H768        H  0.80623749  0.38204648  0.64029463     0.15200
H769        H  0.80625267  0.59935283  0.38270548     0.15200
H770        H  0.80548918  0.59894369  0.63862564     0.15200
H771        H  0.87901195  0.46106906  0.47725893     0.13500
H772        H  0.87861840  0.52331086  0.47689072     0.13500
H773        H  0.88026138  0.45930718  0.54838171     0.13500
H774        H  0.87998766  0.52160687  0.54763327     0.13500
H775        H  0.85770051  0.46332583  0.34565302     0.26800
H776        H  0.85811824  0.52059411  0.34530750     0.26800
In777      In  0.76104656  0.85658220  0.33370269     1.36900
C778        C  0.80264261  0.80846068  0.66854769     0.78200
O779        O  0.73382901  0.82717228  0.62302097    -0.60300
O780        O  0.73780161  0.87577016  0.61289809    -0.51200
C781        C  0.72417431  0.85337338  0.39643665     0.70900
O782        O  0.75316451  0.85003811  0.39844418    -0.46000
C783        C  0.79500366  0.90908611  0.34090065     0.75600
O784        O  0.77975290  0.81122152  0.35823218    -0.57900
O785        O  0.80431135  0.88419395  0.65856835    -0.48000
O786        O  0.80135999  0.82795897  0.64128495    -0.54300
C787        C  0.72624728  0.85003898  0.60213980     0.85700
O788        O  0.71471480  0.85902129  0.36275946    -0.56200
O789        O  0.76708569  0.90780163  0.35151230    -0.59500
N790        N  0.64598115  0.84908656  0.44141028    -0.36000
N791        N  0.59917610  0.84050317  0.50023039    -0.56600
N792        N  0.64709937  0.84332028  0.55879737    -0.36000
N793        N  0.69491607  0.84751508  0.50000436    -0.56600
C794        C  0.62122441  0.83913983  0.42078653     0.27600
C795        C  0.67158004  0.84061344  0.42131484     0.27600
C796        C  0.62235699  0.83335536  0.57974814     0.27600
C797        C  0.67288986  0.83716784  0.57961789     0.27600
C798        C  0.58247073  0.83263234  0.46910482     0.36200
C799        C  0.58337404  0.82915932  0.53060166     0.36200
C800        C  0.71173402  0.85588304  0.46850194     0.36200
C801        C  0.71203168  0.85479942  0.53149818     0.36200
C802        C  0.63108340  0.82287363  0.38846425    -0.21300
C803        C  0.66288063  0.82388787  0.38869970    -0.21300
C804        C  0.63256861  0.81957587  0.61351418    -0.21300
C805        C  0.66431644  0.82250223  0.61381663    -0.21300
C806        C  0.55741472  0.81393572  0.47928695    -0.22300
C807        C  0.55795146  0.81178018  0.51868826    -0.22300
C808        C  0.73982847  0.86861342  0.48007559    -0.22300
C809        C  0.74008518  0.86771704  0.51995088    -0.22300
C810        C  0.58992653  0.84277811  0.43186925    -0.17700
C811        C  0.70227764  0.85004799  0.42989228    -0.17700
C812        C  0.70337582  0.84722274  0.57000333    -0.17700
C813        C  0.59082900  0.83648981  0.56876875    -0.17700
H814        H  0.61682269  0.81079551  0.36757229     0.15200
H815        H  0.67795369  0.81297497  0.36763661     0.15200
H816        H  0.61858963  0.80843792  0.63559589     0.15200
H817        H  0.67917762  0.81451194  0.63672325     0.15200
H818        H  0.54053090  0.80320168  0.46038030     0.13500
H819        H  0.54140077  0.79927122  0.53655228     0.13500
H820        H  0.75833105  0.87754082  0.46197527     0.13500
H821        H  0.75890583  0.87538918  0.53823916     0.13500
H822        H  0.64531061  0.86376462  0.46549348     0.26800
H823        H  0.64609190  0.85709987  0.53407467     0.26800
In824      In  0.25655381  0.85750415  0.66505824     1.36900
C825        C  0.21421482  0.81137674  0.34052947     0.78200
O826        O  0.28692519  0.82957669  0.37170812    -0.60300
O827        O  0.27953139  0.87707519  0.38597702    -0.51200
C828        C  0.29351732  0.85478299  0.60213807     0.70900
O829        O  0.26643231  0.84383996  0.60262567    -0.46000
C830        C  0.22289306  0.90882632  0.65053889     0.75600
O831        O  0.23903533  0.80792609  0.65596852    -0.57900
O832        O  0.23351365  0.90273495  0.35275357    -0.48000
O833        O  0.21149301  0.83777666  0.35642461    -0.54300
C834        C  0.29259180  0.85169711  0.39487883     0.85700
O835        O  0.30155614  0.86729575  0.63367541    -0.56200
O836        O  0.22953442  0.88886856  0.62511782    -0.59500
N837        N  0.37096762  0.84996579  0.43951589    -0.36000
N838        N  0.41884078  0.84646432  0.49882491    -0.56600
N839        N  0.37154052  0.84987436  0.55723926    -0.36000
N840        N  0.32282056  0.84863200  0.49821594    -0.56600
C841        C  0.39640579  0.84249182  0.41849803     0.27600
C842        C  0.34595709  0.84148126  0.41846310     0.27600
C843        C  0.39617252  0.83990217  0.57800891     0.27600
C844        C  0.34587278  0.84256300  0.57786003     0.27600
C845        C  0.43444148  0.83686539  0.46748176     0.36200
C846        C  0.43504201  0.83580976  0.52899071     0.36200
C847        C  0.30522881  0.85448026  0.46661864     0.36200
C848        C  0.30537114  0.85550968  0.52980841     0.36200
C849        C  0.38764210  0.82792152  0.38460068    -0.21300
C850        C  0.35583113  0.82767733  0.38428218    -0.21300
C851        C  0.38592300  0.82481486  0.61107033    -0.21300
C852        C  0.35420585  0.82691596  0.61127085    -0.21300
C853        C  0.45902730  0.81773834  0.47746300    -0.22300
C854        C  0.45947216  0.81713626  0.51690583    -0.22300
C855        C  0.27611734  0.86450380  0.47825144    -0.22300
C856        C  0.27626985  0.86538525  0.51819384    -0.22300
C857        C  0.42735227  0.84705616  0.43037565    -0.17700
C858        C  0.31482750  0.84878532  0.42780442    -0.17700
C859        C  0.31527422  0.85137232  0.56868483    -0.17700
C860        C  0.42767765  0.84334853  0.56712212    -0.17700
H861        H  0.40265267  0.81763789  0.36300133     0.15200
H862        H  0.34176529  0.81763922  0.36180586     0.15200
H863        H  0.39985667  0.81303640  0.63243166     0.15200
H864        H  0.33885294  0.81735911  0.63304555     0.15200
H865        H  0.47515270  0.80596089  0.45834371     0.13500
H866        H  0.47579775  0.80445248  0.53457415     0.13500
H867        H  0.25674664  0.87042915  0.45995647     0.13500
H868        H  0.25706668  0.87234627  0.53646019     0.13500
H869        H  0.37086495  0.86339164  0.46463590     0.26800
H870        H  0.37224401  0.86408808  0.53282522     0.26800
N871        N  0.46063419  0.85392790  0.33264235    -0.36000
N872        N  0.50874813  0.83998141  0.60664346    -0.56600
N873        N  0.55658279  0.84774133  0.33314203    -0.36000
N874        N  0.50874874  0.84876354  0.39213547    -0.56600
C875        C  0.44564311  0.85715265  0.63414189     0.27600
C876        C  0.44601064  0.86392553  0.36464873     0.27600
C877        C  0.57241315  0.85156119  0.63525309     0.27600
C878        C  0.57213262  0.85716268  0.36475836     0.27600
C879        C  0.48451302  0.85093443  0.58608393     0.36200
C880        C  0.53443027  0.84828189  0.58655087     0.36200
C881        C  0.48404434  0.85777721  0.41336794     0.36200
C882        C  0.53382014  0.85465809  0.41416234     0.36200
C883        C  0.42238684  0.87824079  0.64363075    -0.21300
C884        C  0.42267670  0.88482839  0.35544300    -0.21300
C885        C  0.59550486  0.87300571  0.64412928    -0.21300
C886        C  0.59589039  0.87753126  0.35469051    -0.21300
C887        C  0.49489151  0.86861739  0.55514224    -0.22300
C888        C  0.52662534  0.86694907  0.55545490    -0.22300
C889        C  0.49351905  0.87208521  0.44718290    -0.22300
C890        C  0.52519407  0.87002938  0.44774548    -0.22300
C891        C  0.45311209  0.84725702  0.59682908    -0.17700
C892        C  0.45307173  0.85371919  0.40175059    -0.17700
C893        C  0.56456961  0.84851047  0.40257182    -0.17700
C894        C  0.56505508  0.84163081  0.59808671    -0.17700
H895        H  0.40727616  0.89072661  0.62415232     0.15200
H896        H  0.40750818  0.89722477  0.37517673     0.15200
H897        H  0.61043001  0.88558314  0.62423838     0.15200
H898        H  0.61145314  0.88992037  0.37382831     0.15200
H899        H  0.48097456  0.88234420  0.53563478     0.13500
H900        H  0.54233896  0.87921086  0.53630285     0.13500
H901        H  0.47905373  0.88352571  0.46846461     0.13500
H902        H  0.54028874  0.87995706  0.46934862     0.13500
H903        H  0.47764091  0.83660855  0.33117659     0.26800
H904        H  0.53857106  0.83136051  0.33203320     0.26800
In905      In  0.75661668  0.12909917  0.67566790     1.36900
C906        C  0.79670928  0.17724265  0.34077169     0.78200
O907        O  0.72254915  0.15325882  0.38074668    -0.60300
O908        O  0.73850473  0.10897464  0.39905294    -0.51200
C909        C  0.71994023  0.13277708  0.61259157     0.70900
O910        O  0.74608730  0.14585672  0.61419558    -0.46000
C911        C  0.79077206  0.07685166  0.67931695     0.75600
O912        O  0.77985298  0.17187932  0.70086081    -0.57900
O913        O  0.80025297  0.10302806  0.35707575    -0.48000
O914        O  0.79277908  0.15921801  0.31239472    -0.54300
C915        C  0.72073606  0.13185267  0.40584376     0.85700
O916        O  0.71282119  0.11800676  0.64286103    -0.56200
O917        O  0.76769966  0.07903038  0.65737625    -0.59500
N918        N  0.64144727  0.12727841  0.45089838    -0.36000
N919        N  0.59311743  0.13243558  0.51119806    -0.56600
N920        N  0.64143469  0.13539093  0.56917697    -0.36000
N921        N  0.68980077  0.13403514  0.50913212    -0.56600
C922        C  0.61553459  0.13347944  0.43022483     0.27600
C923        C  0.66608120  0.13728954  0.42961546     0.27600
C924        C  0.61666092  0.14586768  0.58982661     0.27600
C925        C  0.66718720  0.14372203  0.58888897     0.27600
C926        C  0.57728537  0.13971326  0.47915417     0.36200
C927        C  0.57805662  0.14693162  0.54020926     0.36200
C928        C  0.70782158  0.12864848  0.47757097     0.36200
C929        C  0.70800938  0.13050122  0.54064855     0.36200
C930        C  0.62363389  0.14901413  0.39669228    -0.21300
C931        C  0.65536330  0.15079212  0.39583003    -0.21300
C932        C  0.62707096  0.16237402  0.62174222    -0.21300
C933        C  0.65883226  0.16046772  0.62152906    -0.21300
C934        C  0.55374134  0.16077099  0.48722646    -0.22300
C935        C  0.55436079  0.16553283  0.52622896    -0.22300
C936        C  0.73786330  0.12223067  0.48914507    -0.22300
C937        C  0.73792327  0.12314036  0.52903162    -0.22300
C938        C  0.58457786  0.12803575  0.44255026    -0.17700
C939        C  0.69783502  0.13258002  0.43875854    -0.17700
C940        C  0.69806480  0.13557573  0.57939402    -0.17700
C941        C  0.58499183  0.14242003  0.57923012    -0.17700
H942        H  0.60816333  0.15926535  0.37584584     0.15200
H943        H  0.66860765  0.16214906  0.37345459     0.15200
H944        H  0.61329812  0.17543629  0.64228834     0.15200
H945        H  0.67428924  0.17126044  0.64208557     0.15200
H946        H  0.53802355  0.17168294  0.46707225     0.13500
H947        H  0.53903236  0.18070242  0.54249749     0.13500
H948        H  0.75781294  0.11789234  0.47087759     0.13500
H949        H  0.75788059  0.11939607  0.54722116     0.13500
H950        H  0.64223775  0.11432030  0.47635534     0.26800
H951        H  0.64084660  0.12059619  0.54527162     0.26800
In952      In  0.24827352  0.12728559  0.34644345     1.36900
C953        C  0.20858932  0.17555640  0.68402082     0.78200
O954        O  0.28011275  0.15590548  0.63959160    -0.60300
O955        O  0.26990004  0.10965062  0.62295677    -0.51200
C956        C  0.28591695  0.12873967  0.40889135     0.70900
O957        O  0.25720680  0.13396266  0.41120160    -0.46000
C958        C  0.21416324  0.07398386  0.35169182     0.75600
O959        O  0.22857226  0.17278158  0.36924290    -0.57900
O960        O  0.24064461  0.07633541  0.69445321    -0.48000
O961        O  0.23535546  0.17856269  0.66979307    -0.54300
C962        C  0.28466361  0.13445379  0.61526034     0.85700
O963        O  0.29469864  0.12202583  0.37514023    -0.56200
O964        O  0.20292705  0.10116991  0.35141606    -0.59500
N965        N  0.36459204  0.12838886  0.45343746    -0.36000
N966        N  0.41172262  0.14018521  0.51209135    -0.56600
N967        N  0.36384772  0.14099469  0.57085344    -0.36000
N968        N  0.31594427  0.13444959  0.51211306    -0.56600
C969        C  0.39002865  0.13700753  0.43287913     0.27600
C970        C  0.33958687  0.13795675  0.43310989     0.27600
C971        C  0.38842132  0.15274494  0.59065028     0.27600
C972        C  0.33775432  0.14851592  0.59081914     0.27600
C973        C  0.42890472  0.14463479  0.48012956     0.36200
C974        C  0.42746453  0.15415345  0.54073015     0.36200
C975        C  0.29844304  0.12680881  0.48102054     0.36200
C976        C  0.29840829  0.12914308  0.54408317     0.36200
C977        C  0.38123863  0.15385157  0.40069743    -0.21300
C978        C  0.34940907  0.15410897  0.40056572    -0.21300
C979        C  0.37774305  0.16905409  0.62255779    -0.21300
C980        C  0.34599831  0.16607452  0.62301704    -0.21300
C981        C  0.45414381  0.16382585  0.48768616    -0.22300
C982        C  0.45306753  0.17012794  0.52638755    -0.22300
C983        C  0.26946726  0.11668154  0.49329619    -0.22300
C984        C  0.26943261  0.11820617  0.53313339    -0.22300
C985        C  0.42108889  0.13214291  0.44414680    -0.17700
C986        C  0.30822124  0.13096442  0.44208133    -0.17700
C987        C  0.30731523  0.13746594  0.58232468    -0.17700
C988        C  0.42020077  0.14984686  0.57978446    -0.17700
H989        H  0.39631194  0.16568474  0.38037859     0.15200
H990        H  0.33502298  0.16600960  0.37986498     0.15200
H991        H  0.39136752  0.18232815  0.64301130     0.15200
H992        H  0.33106038  0.17651864  0.64446676     0.15200
H993        H  0.47131584  0.17253158  0.46746282     0.13500
H994        H  0.46961946  0.18412553  0.54231962     0.13500
H995        H  0.25020823  0.10910869  0.47571268     0.13500
H996        H  0.24993628  0.11269662  0.55170296     0.13500
H997        H  0.36443807  0.11428477  0.47802308     0.26800
H998        H  0.36501889  0.12554356  0.54760453     0.26800
N999        N  0.45441696  0.12838191  0.34577119    -0.36000
N1000       N  0.50275873  0.14952783  0.61846250    -0.56600
N1001       N  0.55012521  0.12435017  0.34485737    -0.36000
N1002       N  0.50248414  0.12410589  0.40414018    -0.56600
C1003       C  0.43894851  0.14108447  0.64774356     0.27600
C1004       C  0.43889332  0.11747519  0.37678366     0.27600
C1005       C  0.56546777  0.13608540  0.64781695     0.27600
C1006       C  0.56542068  0.11338105  0.37579940     0.27600
C1007       C  0.47718636  0.14062029  0.59861625     0.36200
C1008       C  0.52732366  0.13777849  0.59864500     0.36200
C1009       C  0.47725884  0.11850505  0.42640620     0.36200
C1010       C  0.52738645  0.11729904  0.42609955     0.36200
C1011       C  0.41722548  0.11897379  0.65919723    -0.21300
C1012       C  0.41423734  0.09878647  0.36545213    -0.21300
C1013       C  0.58715996  0.11467577  0.66076387    -0.21300
C1014       C  0.58948149  0.09402397  0.36428934    -0.21300
C1015       C  0.48543622  0.12062427  0.56880952    -0.22300
C1016       C  0.51714519  0.11887379  0.56878693    -0.22300
C1017       C  0.48603879  0.10529348  0.46113286    -0.22300
C1018       C  0.51786245  0.10453623  0.46094501    -0.22300
C1019       C  0.44624714  0.14787202  0.60940618    -0.17700
C1020       C  0.44643724  0.12468436  0.41497817    -0.17700
C1021       C  0.55854638  0.12153176  0.41403323    -0.17700
C1022       C  0.55880792  0.14195145  0.60910250    -0.17700
H1023       H  0.40314825  0.10412477  0.64092102     0.15200
H1024       H  0.39812508  0.08618291  0.38382699     0.15200
H1025       H  0.60133279  0.09906989  0.64351821     0.15200
H1026       H  0.60537292  0.08135339  0.38258723     0.15200
H1027       H  0.47005097  0.10759547  0.55018327     0.13500
H1028       H  0.53113325  0.10429602  0.55010113     0.13500
H1029       H  0.47100739  0.09635020  0.48363429     0.13500
H1030       H  0.53235150  0.09477367  0.48322818     0.13500
H1031       H  0.47263472  0.14454623  0.34589584     0.26800
H1032       H  0.53259336  0.14115169  0.34507895     0.26800
In1033     In  0.14237097  0.74686220  0.34404792     1.36900
C1034       C  0.19001858  0.78792953  0.67818489     0.78200
O1035       O  0.15759424  0.70487977  0.64642623    -0.60300
O1036       O  0.12879324  0.73605909  0.61629942    -0.51200
C1037       C  0.14229221  0.71095244  0.40836936     0.70900
O1038       O  0.16095350  0.73339417  0.40342462    -0.46000
C1039       C  0.09147904  0.78319449  0.34271062     0.75600
O1040       O  0.16652391  0.79035361  0.36482775    -0.57900
O1041       O  0.09364639  0.75973983  0.69934018    -0.48000
O1042       O  0.19019231  0.76279735  0.65897731    -0.54300
C1043       C  0.14372861  0.71074470  0.61539494     0.85700
O1044       O  0.12308577  0.70800824  0.38140267    -0.56200
O1045       O  0.11743049  0.79144514  0.32931243    -0.59500
N1046       N  0.16101980  0.63433969  0.56997460    -0.36000
N1047       N  0.17476652  0.58881906  0.51129608    -0.56600
N1048       N  0.16127400  0.63431285  0.45281774    -0.36000
N1049       N  0.14615460  0.68081561  0.51155680    -0.56600
C1050       C  0.15808021  0.60687270  0.58940155     0.27600
C1051       C  0.14548215  0.65637234  0.59031944     0.27600
C1052       C  0.15944590  0.60680999  0.43321356     0.27600
C1053       C  0.14508376  0.65591607  0.43269739     0.27600
C1054       C  0.18632464  0.57437767  0.54256622     0.36200
C1055       C  0.18722802  0.57455835  0.48023160     0.36200
C1056       C  0.14663999  0.69975962  0.54301603     0.36200
C1057       C  0.14688688  0.69952789  0.47995936     0.36200
C1058       C  0.13974383  0.61148457  0.62193280    -0.21300
C1059       C  0.13219385  0.64281893  0.62278404    -0.21300
C1060       C  0.14122998  0.61079570  0.40082550    -0.21300
C1061       C  0.13256316  0.64177899  0.40015543    -0.21300
C1062       C  0.20723483  0.55139915  0.53146076    -0.22300
C1063       C  0.20775665  0.55146740  0.49172962    -0.22300
C1064       C  0.14723766  0.73083382  0.53132470    -0.22300
C1065       C  0.14716419  0.73068313  0.49143475    -0.22300
C1066       C  0.17393058  0.57871255  0.57985859    -0.17700
C1067       C  0.14502405  0.68878147  0.58173251    -0.17700
C1068       C  0.14434455  0.68844590  0.44136124    -0.17700
C1069       C  0.17584979  0.57906215  0.44262314    -0.17700
H1070       H  0.13295401  0.59423770  0.64323083     0.15200
H1071       H  0.11829172  0.65436327  0.64459746     0.15200
H1072       H  0.13505199  0.59331362  0.37956589     0.15200
H1073       H  0.11819672  0.65218638  0.37828979     0.15200
H1074       H  0.21952476  0.53525298  0.54992313     0.13500
H1075       H  0.22048417  0.53535698  0.47347502     0.13500
H1076       H  0.14731584  0.75152890  0.54937174     0.13500
H1077       H  0.14670621  0.75121997  0.47317057     0.13500
H1078       H  0.17588522  0.63879495  0.54678993     0.26800
H1079       H  0.17589734  0.63911704  0.47596507     0.26800
In1080     In  0.14044747  0.24455795  0.67811774     1.36900
C1081       C  0.18742461  0.20235370  0.34046490     0.78200
O1082       O  0.15991382  0.28688800  0.37616592    -0.60300
O1083       O  0.12982132  0.25689699  0.40670200    -0.51200
C1084       C  0.14305604  0.28148992  0.61503949     0.70900
O1085       O  0.16451357  0.26293896  0.62431604    -0.46000
C1086       C  0.08917457  0.21046778  0.66523230     0.73200
O1087       O  0.19010887  0.22759217  0.66972277    -0.57900
O1088       O  0.11437517  0.20183968  0.35954671    -0.48000
O1089       O  0.18586464  0.22325745  0.36615430    -0.54300
C1090       C  0.14609120  0.28147335  0.40762451     0.85700
O1091       O  0.11984708  0.28060546  0.63748642    -0.56200
O1092       O  0.11206463  0.21141966  0.64264004    -0.59500
N1093       N  0.16257136  0.35822095  0.57030432    -0.36000
N1094       N  0.17673069  0.40382674  0.51125055    -0.56600
N1095       N  0.16351181  0.35831204  0.45310822    -0.36000
N1096       N  0.14856726  0.31154981  0.51180020    -0.56600
C1097       C  0.16019055  0.38581501  0.58950575     0.27600
C1098       C  0.14649938  0.33644879  0.59066518     0.27600
C1099       C  0.16041445  0.38570898  0.43355407     0.27600
C1100       C  0.14828992  0.33595277  0.43291670     0.27600
C1101       C  0.18878901  0.41809677  0.54239964     0.36200
C1102       C  0.18801185  0.41887226  0.48004606     0.36200
C1103       C  0.14972998  0.29295844  0.54352640     0.36200
C1104       C  0.15017491  0.29262633  0.48031905     0.36200
C1105       C  0.14173235  0.38163899  0.62202360    -0.21300
C1106       C  0.13360896  0.35038920  0.62316134    -0.21300
C1107       C  0.14218704  0.38072196  0.40125065    -0.21300
C1108       C  0.13495771  0.34927205  0.40055443    -0.21300
C1109       C  0.20907674  0.44168754  0.53100896    -0.22300
C1110       C  0.20844437  0.44229495  0.49126089    -0.22300
C1111       C  0.15174283  0.26186569  0.53215775    -0.22300
C1112       C  0.15215603  0.26165869  0.49216665    -0.22300
C1113       C  0.17656169  0.41371418  0.57978719    -0.17700
C1114       C  0.14603026  0.30397695  0.58208406    -0.17700
C1115       C  0.14821408  0.30348233  0.44146561    -0.17700
C1116       C  0.17595731  0.41420009  0.44274583    -0.17700
H1117       H  0.13527530  0.39909611  0.64322932     0.15200
H1118       H  0.11970006  0.33939223  0.64537816     0.15200
H1119       H  0.13527868  0.39778723  0.37993132     0.15200
H1120       H  0.12132238  0.33748955  0.37877582     0.15200
H1121       H  0.22140836  0.45799156  0.54937388     0.13500
H1122       H  0.22038743  0.45897949  0.47291921     0.13500
H1123       H  0.15227780  0.24144371  0.55063938     0.13500
H1124       H  0.15340267  0.24103375  0.47404264     0.13500
H1125       H  0.17746563  0.35357147  0.54721656     0.26800
H1126       H  0.17834066  0.35409244  0.47618095     0.26800
N1127       N  0.18062191  0.54355567  0.34409938    -0.36000
N1128       N  0.17917064  0.49630651  0.61865150    -0.56600
N1129       N  0.17884157  0.44939204  0.34397616    -0.36000
N1130       N  0.18046411  0.49660280  0.40361730    -0.56600
C1131       C  0.18688681  0.55981123  0.64674134     0.27600
C1132       C  0.18933653  0.56008675  0.37548859     0.27600
C1133       C  0.18922177  0.43314296  0.64637219     0.27600
C1134       C  0.18823860  0.43324023  0.37527447     0.27600
C1135       C  0.16877461  0.52151275  0.59911890     0.36200
C1136       C  0.16991092  0.47066169  0.59890823     0.36200
C1137       C  0.17015278  0.52209354  0.42289631     0.36200
C1138       C  0.16990210  0.47121995  0.42297360     0.36200
C1139       C  0.20209826  0.58698965  0.65799597    -0.21300
C1140       C  0.20477252  0.58708784  0.36390853    -0.21300
C1141       C  0.20538640  0.40663698  0.65756972    -0.21300
C1142       C  0.20419742  0.40668088  0.36355306    -0.21300
C1143       C  0.15242075  0.51184479  0.56685202    -0.22300
C1144       C  0.15313181  0.47953224  0.56673310    -0.22300
C1145       C  0.15243169  0.51290288  0.45441563    -0.22300
C1146       C  0.15234770  0.48056598  0.45452212    -0.22300
C1147       C  0.17661946  0.55278147  0.60906349    -0.17700
C1148       C  0.17896075  0.55316098  0.41330686    -0.17700
C1149       C  0.17833353  0.44010849  0.41328405    -0.17700
C1150       C  0.17896464  0.43981877  0.60871527    -0.17700
H1151       H  0.21069733  0.60555977  0.63954010     0.15200
H1152       H  0.21358109  0.60562868  0.38220830     0.15200
H1153       H  0.21494264  0.38862086  0.63902533     0.15200
H1154       H  0.21379949  0.38861423  0.38180064     0.15200
H1155       H  0.14136120  0.52651212  0.54558299     0.13500
H1156       H  0.14269430  0.46435395  0.54539920     0.13500
H1157       H  0.14091817  0.52790648  0.47514197     0.13500
H1158       H  0.14076302  0.46565518  0.47531344     0.13500
H1159       H  0.16502192  0.52484569  0.34420198     0.26800
H1160       H  0.16305565  0.46786825  0.34421323     0.26800
N1161       N  0.14343588  0.94505464  0.29954184    -0.36000
N1162       N  0.18825664  0.98974379  0.33209856    -0.56600
N1163       N  0.13960083  0.03573497  0.33492824    -0.36000
N1164       N  0.08013704  0.99044214  0.31711349    -0.56600
C1165       C  0.16846426  0.92611099  0.30085154     0.27600
C1166       C  0.11879906  0.92727174  0.28912681     0.27600
C1167       C  0.16190354  0.04929769  0.35651710     0.27600
C1168       C  0.11255036  0.05017512  0.34366161     0.27600
C1169       C  0.20746412  0.96519643  0.32604592     0.36200
C1170       C  0.20613583  0.01516458  0.33995081     0.36200
C1171       C  0.08298057  0.96959113  0.28801659     0.36200
C1172       C  0.08224705  0.01901192  0.30029956     0.36200
C1173       C  0.15962143  0.89626709  0.28843646    -0.21300
C1174       C  0.12844679  0.89725879  0.28035140    -0.21300
C1175       C  0.14858515  0.07149744  0.38077916    -0.21300
C1176       C  0.11728092  0.07180266  0.37295284    -0.21300
C1177       C  0.23788482  0.97489496  0.33076042    -0.22300
C1178       C  0.23714027  0.00651237  0.33892204    -0.22300
C1179       C  0.08891137  0.98489753  0.25343073    -0.22300
C1180       C  0.08759660  0.01651525  0.26110337    -0.22300
C1181       C  0.19828564  0.93431677  0.31539376    -0.17700
C1182       C  0.08787331  0.93742590  0.29371472    -0.17700
C1183       C  0.08547713  0.04679558  0.32121129    -0.17700
C1184       C  0.19411770  0.04511078  0.35046663    -0.17700
H1185       H  0.17346669  0.87525211  0.28684234     0.15200
H1186       H  0.11420170  0.87761831  0.27151869     0.15200
H1187       H  0.16035343  0.08657757  0.40117845     0.15200
H1188       H  0.10034077  0.08729807  0.38590379     0.15200
H1189       H  0.25858374  0.96079390  0.32780242     0.13500
H1190       H  0.25737103  0.02063175  0.34476706     0.13500
H1191       H  0.09449737  0.97417558  0.22593947     0.13500
H1192       H  0.09231467  0.03539997  0.24106118     0.13500
H1193       H  0.14183857  0.96797510  0.30933103     0.26800
H1194       H  0.14331120  0.02133064  0.31104781     0.26800
N1195       N  0.96171056  0.13067868  0.34829724    -0.36000
N1196       N  0.00758169  0.17903619  0.34246339    -0.56600
N1197       N  0.05385002  0.12941895  0.33170521    -0.36000
N1198       N  0.00690399  0.08167605  0.33444081    -0.56600
C1199       C  0.94728097  0.15533086  0.36474425     0.27600
C1200       C  0.94786680  0.10457538  0.36233299     0.27600
C1201       C  0.07169724  0.15529239  0.32657802     0.27600
C1202       C  0.07058987  0.10433436  0.31918007     0.27600
C1203       C  0.98260091  0.19798981  0.34668642     0.36200
C1204       C  0.03305914  0.19753064  0.34181423     0.36200
C1205       C  0.97988701  0.06695609  0.32740800     0.36200
C1206       C  0.02933605  0.06438339  0.31783658     0.36200
C1207       C  0.92485704  0.14478227  0.39055514    -0.21300
C1208       C  0.92533984  0.11261051  0.38915184    -0.21300
C1209       C  0.09972115  0.14654631  0.30985806    -0.21300
C1210       C  0.09891560  0.11461298  0.30499719    -0.21300
C1211       C  0.99227928  0.22893821  0.34839591    -0.22300
C1212       C  0.02419177  0.22859430  0.34608055    -0.22300
C1213       C  0.98474004  0.04095275  0.30441696    -0.22300
C1214       C  0.01613336  0.03888968  0.29893993    -0.22300
C1215       C  0.95212232  0.18690544  0.35426419    -0.17700
C1216       C  0.95220532  0.07441222  0.34684759    -0.17700
C1217       C  0.06114568  0.07228916  0.31953862    -0.17700
C1218       C  0.06396909  0.18669059  0.33679002    -0.17700
H1219       H  0.90948178  0.15881808  0.40824627     0.15200
H1220       H  0.90998621  0.09696512  0.40477286     0.15200
H1221       H  0.11866587  0.16169321  0.30119547     0.15200
H1222       H  0.11701607  0.10056385  0.29194575     0.15200
H1223       H  0.97843275  0.24958465  0.35355608     0.13500
H1224       H  0.03893424  0.24907585  0.34765486     0.13500
H1225       H  0.96755077  0.02466240  0.29367984     0.13500
H1226       H  0.02692409  0.02131725  0.28116952     0.13500
H1227       H  0.97680201  0.13172104  0.32468352     0.26800
H1228       H  0.03298153  0.12884821  0.34673893     0.26800
N1229       N  0.05378129  0.85947825  0.32298919    -0.36000
N1230       N  0.00780709  0.90762382  0.32381111    -0.56600
N1231       N  0.96101239  0.85861339  0.34093508    -0.36000
N1232       N  0.00766660  0.81083355  0.34087673    -0.56600
C1233       C  0.06928267  0.88708403  0.32723435     0.27600
C1234       C  0.07011572  0.83733692  0.34212692     0.27600
C1235       C  0.94450158  0.88343017  0.32850407     0.27600
C1236       C  0.94437621  0.83280133  0.33155370     0.27600
C1237       C  0.03019206  0.92301366  0.30389275     0.36200
C1238       C  0.98155983  0.92425237  0.31975215     0.36200
C1239       C  0.03320037  0.79267636  0.34328633     0.36200
C1240       C  0.98274382  0.79186598  0.34591820     0.36200
C1241       C  0.09436859  0.88274819  0.35144602    -0.21300
C1242       C  0.09531916  0.85128493  0.36007598    -0.21300
C1243       C  0.91840441  0.87339389  0.30886989    -0.21300
C1244       C  0.91793854  0.84138228  0.31155006    -0.21300
C1245       C  0.01729800  0.94847556  0.28489726    -0.22300
C1246       C  0.98656639  0.94951491  0.29552975    -0.22300
C1247       C  0.02426985  0.76177562  0.34993311    -0.22300
C1248       C  0.99237755  0.76143847  0.35224156    -0.22300
C1249       C  0.06204356  0.91533808  0.30735569    -0.17700
C1250       C  0.06400508  0.80458305  0.34219815    -0.17700
C1251       C  0.95167385  0.80171371  0.34163203    -0.17700
C1252       C  0.95261546  0.91494107  0.33478447    -0.17700
H1253       H  0.11076500  0.90030980  0.36106876     0.15200
H1254       H  0.11251579  0.83993956  0.37785794     0.15200
H1255       H  0.90133411  0.88770682  0.29445963     0.15200
H1256       H  0.90036761  0.82610027  0.29956583     0.15200
H1257       H  0.02812550  0.96450158  0.26491747     0.13500
H1258       H  0.96952859  0.96600173  0.28515344     0.13500
H1259       H  0.03862225  0.74134585  0.35357334     0.13500
H1260       H  0.97808276  0.74095450  0.35721642     0.13500
H1261       H  0.03517526  0.85538477  0.30446054     0.26800
H1262       H  0.98068106  0.85971578  0.35831139     0.26800
N1263       N  0.87073792  0.04147240  0.34862746    -0.36000
N1264       N  0.91833190  0.99461362  0.35078614    -0.56600
N1265       N  0.87196010  0.94676604  0.34152996    -0.36000
N1266       N  0.82312173  0.99365958  0.34402974    -0.56600
C1267       C  0.89666279  0.05764562  0.33863440     0.27600
C1268       C  0.84634688  0.05786288  0.33506317     0.27600
C1269       C  0.89727631  0.93060117  0.35292208     0.27600
C1270       C  0.84706494  0.93013079  0.35373412     0.27600
C1271       C  0.93458395  0.01974633  0.36260129     0.36200
C1272       C  0.93680084  0.96966697  0.35574768     0.36200
C1273       C  0.80420145  0.01889949  0.34337226     0.36200
C1274       C  0.80478740  0.96789880  0.34241777     0.36200
C1275       C  0.88865942  0.08394319  0.31748758    -0.21300
C1276       C  0.85689436  0.08430277  0.31568584    -0.21300
C1277       C  0.88845557  0.90476198  0.37449461    -0.21300
C1278       C  0.85670789  0.90404018  0.37424514    -0.21300
C1279       C  0.96264510  0.01042153  0.37828496    -0.22300
C1280       C  0.96422919  0.97849177  0.37342388    -0.22300
C1281       C  0.77356902  0.00903805  0.34193271    -0.22300
C1282       C  0.77398544  0.97681827  0.34041750    -0.22300
C1283       C  0.92704874  0.05030767  0.35078660    -0.17700
C1284       C  0.81470126  0.05035811  0.34080024    -0.17700
C1285       C  0.81579851  0.93677399  0.34543623    -0.17700
C1286       C  0.92821033  0.93917136  0.34489677    -0.17700
H1287       H  0.90402214  0.10137023  0.30510251     0.15200
H1288       H  0.84309333  0.10189301  0.30132158     0.15200
H1289       H  0.90338578  0.88813621  0.38883034     0.15200
H1290       H  0.84225493  0.88656718  0.38816659     0.15200
H1291       H  0.98091757  0.02525600  0.38947757     0.13500
H1292       H  0.98328109  0.96360532  0.38189162     0.13500
H1293       H  0.75286308  0.02316212  0.34097612     0.13500
H1294       H  0.75366407  0.96203992  0.33881922     0.13500
H1295       H  0.86954013  0.02237723  0.36735285     0.26800
H1296       H  0.87180071  0.96607967  0.32306688     0.26800
In1297     In  0.87391335  0.74543222  0.00958058     1.36900
C1298       C  0.82709621  0.78437788  0.67099514     0.78200
O1299       O  0.85545003  0.70151618  0.70941579    -0.60300
O1300       O  0.88471861  0.73205113  0.74030261    -0.51200
C1301       C  0.87166671  0.70768551  0.94716001     0.70900
O1302       O  0.85133703  0.72811151  0.95428485    -0.46000
C1303       C  0.92572393  0.78049648  0.00737127     0.75600
O1304       O  0.84990747  0.78692433  0.98243060    -0.57900
O1305       O  0.92529819  0.75090903  0.66117428    -0.48000
O1306       O  0.82786999  0.76353697  0.69682956    -0.54300
C1307       C  0.86893407  0.70712618  0.74085063     0.85700
O1308       O  0.89344036  0.70727589  0.97130451    -0.56200
O1309       O  0.90226848  0.78699898  0.02763656    -0.59500
N1310       N  0.85264737  0.62996471  0.78590554    -0.36000
N1311       N  0.84273351  0.58367965  0.84477278    -0.56600
N1312       N  0.85498775  0.62990208  0.90333933    -0.36000
N1313       N  0.86642658  0.67697650  0.84445124    -0.56600
C1314       C  0.85640714  0.60261368  0.76641362     0.27600
C1315       C  0.86750333  0.65255404  0.76561103     0.27600
C1316       C  0.85859415  0.60251754  0.92259190     0.27600
C1317       C  0.87045635  0.65238899  0.92304764     0.27600
C1318       C  0.83039135  0.56914926  0.81391623     0.36200
C1319       C  0.83106897  0.56925524  0.87619489     0.36200
C1320       C  0.86434849  0.69578597  0.81304803     0.36200
C1321       C  0.86460941  0.69561275  0.87611054     0.36200
C1322       C  0.87460389  0.60782610  0.73392782    -0.21300
C1323       C  0.88125187  0.63942622  0.73316962    -0.21300
C1324       C  0.87730180  0.60746926  0.95441299    -0.21300
C1325       C  0.88446636  0.63898536  0.95498911    -0.21300
C1326       C  0.80996919  0.54586104  0.82567422    -0.22300
C1327       C  0.81038030  0.54594226  0.86537634    -0.22300
C1328       C  0.86132333  0.72669488  0.82479258    -0.22300
C1329       C  0.86159136  0.72660794  0.86471072    -0.22300
C1330       C  0.84155412  0.57391860  0.77614902    -0.17700
C1331       C  0.86694504  0.68498387  0.77431484    -0.17700
C1332       C  0.86914961  0.68487392  0.91451558    -0.17700
C1333       C  0.84298074  0.57412521  0.91347524    -0.17700
H1334       H  0.88198556  0.59076391  0.71271324     0.15200
H1335       H  0.89486617  0.65142641  0.71142603     0.15200
H1336       H  0.88465351  0.59027797  0.97533964     0.15200
H1337       H  0.89867061  0.65040097  0.97636198     0.15200
H1338       H  0.79724593  0.52966352  0.80759124     0.13500
H1339       H  0.79800930  0.52981336  0.88403074     0.13500
H1340       H  0.85954208  0.74722373  0.80665730     0.13500
H1341       H  0.86051499  0.74712716  0.88304084     0.13500
H1342       H  0.83773662  0.63380680  0.80921756     0.26800
H1343       H  0.83956259  0.63387731  0.88080507     0.26800
In1344     In  0.87165921  0.23949678  0.67935154     1.36900
C1345       C  0.82328736  0.20149355  0.00844469     0.78200
O1346       O  0.85437525  0.28157917  0.97865137    -0.60300
O1347       O  0.88951463  0.25425646  0.95249630    -0.51200
C1348       C  0.87038530  0.27685566  0.74245486     0.70900
O1349       O  0.86154873  0.28508663  0.70942394    -0.46000
C1350       C  0.92433433  0.20715039  0.68697234     0.75600
O1351       O  0.84412643  0.20161222  0.64835995    -0.57900
O1352       O  0.92492355  0.23821055  0.01823273    -0.48000
O1353       O  0.82959513  0.21683579  0.03844130    -0.54300
C1354       C  0.87167254  0.27755529  0.94969307     0.85700
O1355       O  0.87988738  0.24898461  0.74360223    -0.56200
O1356       O  0.89759259  0.19594473  0.69205469    -0.59500
N1357       N  0.85466217  0.35338919  0.78783282    -0.36000
N1358       N  0.84143624  0.39904163  0.84578103    -0.56600
N1359       N  0.85540255  0.35381921  0.90409664    -0.36000
N1360       N  0.87060581  0.30669390  0.84614128    -0.56600
C1361       C  0.85831693  0.38086232  0.76862106     0.27600
C1362       C  0.87068506  0.33130941  0.76821045     0.27600
C1363       C  0.85776743  0.38130710  0.92362034     0.27600
C1364       C  0.87084558  0.33191466  0.92452150     0.27600
C1365       C  0.82978268  0.41349476  0.81462560     0.36200
C1366       C  0.82949773  0.41353150  0.87690865     0.36200
C1367       C  0.86713167  0.28791263  0.81489182     0.36200
C1368       C  0.86829395  0.28824749  0.87781673     0.36200
C1369       C  0.87780111  0.37632840  0.73717236    -0.21300
C1370       C  0.88534933  0.34495203  0.73670193    -0.21300
C1371       C  0.87584354  0.37688638  0.95617231    -0.21300
C1372       C  0.88360201  0.34558036  0.95708304    -0.21300
C1373       C  0.80919474  0.43672578  0.82584008    -0.22300
C1374       C  0.80900228  0.43674201  0.86559701    -0.22300
C1375       C  0.86268191  0.25717082  0.82686288    -0.22300
C1376       C  0.86358884  0.25739050  0.86676499    -0.22300
C1377       C  0.84214200  0.40893580  0.77742910    -0.17700
C1378       C  0.86955884  0.29879412  0.77621371    -0.17700
C1379       C  0.87099553  0.29945779  0.91619729    -0.17700
C1380       C  0.84159425  0.40925423  0.91416643    -0.17700
H1381       H  0.88531982  0.39366216  0.71635565     0.15200
H1382       H  0.89998030  0.33342593  0.71563255     0.15200
H1383       H  0.88223431  0.39420812  0.97751956     0.15200
H1384       H  0.89710222  0.33407901  0.97909688     0.15200
H1385       H  0.79701220  0.45301122  0.80745186     0.13500
H1386       H  0.79665172  0.45307597  0.88395179     0.13500
H1387       H  0.85895836  0.23668495  0.80907057     0.13500
H1388       H  0.86074746  0.23723812  0.88540671     0.13500
H1389       H  0.83895205  0.34890262  0.81015964     0.26800
H1390       H  0.84077858  0.34918415  0.88090495     0.26800
N1391       N  0.83888278  0.44404200  0.67895151    -0.36000
N1392       N  0.83755776  0.49113163  0.73803711    -0.56600
N1393       N  0.83854672  0.53777023  0.67805405    -0.36000
N1394       N  0.83771494  0.49192162  0.95235230    -0.56600
C1395       C  0.82990217  0.42751289  0.71022401     0.27600
C1396       C  0.82905202  0.42897534  0.98103071     0.27600
C1397       C  0.82907247  0.55424122  0.70916507     0.27600
C1398       C  0.82984757  0.55522481  0.98060272     0.27600
C1399       C  0.84789393  0.46588899  0.75759812     0.36200
C1400       C  0.84777036  0.51678152  0.75707006     0.36200
C1401       C  0.84771917  0.46638185  0.93295742     0.36200
C1402       C  0.84851830  0.51721596  0.93309898     0.36200
C1403       C  0.81461285  0.40047965  0.69860797    -0.21300
C1404       C  0.81286893  0.40259882  0.99312562    -0.21300
C1405       C  0.81337507  0.58082321  0.69716915    -0.21300
C1406       C  0.81389488  0.58183297  0.99217927    -0.21300
C1407       C  0.86510981  0.47547594  0.78914824    -0.22300
C1408       C  0.86510479  0.50781140  0.78876584    -0.22300
C1409       C  0.86528402  0.47540826  0.90124774    -0.22300
C1410       C  0.86584425  0.50774321  0.90137606    -0.22300
C1411       C  0.83970448  0.43465524  0.74800896    -0.17700
C1412       C  0.83903476  0.43542270  0.94304965    -0.17700
C1413       C  0.84029524  0.54836382  0.94286379    -0.17700
C1414       C  0.83915153  0.54777742  0.74705671    -0.17700
H1415       H  0.80564717  0.38194648  0.71685601     0.15200
H1416       H  0.80300414  0.38440804  0.97513309     0.15200
H1417       H  0.80393655  0.59923188  0.71520761     0.15200
H1418       H  0.80472607  0.60009896  0.97388269     0.15200
H1419       H  0.87644965  0.46072985  0.81010547     0.13500
H1420       H  0.87642964  0.52294895  0.80943561     0.13500
H1421       H  0.87652141  0.46030337  0.88040117     0.13500
H1422       H  0.87751490  0.52255957  0.88054589     0.13500
H1423       H  0.85449570  0.46274699  0.67912986     0.26800
H1424       H  0.85442844  0.51939776  0.67855280     0.26800
In1425     In  0.76130415  0.85553805  0.66638293     1.36900
C1426       C  0.80201105  0.81054400  0.00239089     0.78200
O1427       O  0.72934024  0.83086985  0.96075687    -0.60300
O1428       O  0.74213345  0.87660974  0.94435792    -0.51200
C1429       C  0.72418595  0.85239787  0.72926902     0.70900
O1430       O  0.75333033  0.85196520  0.73128658    -0.46000
C1431       C  0.79397567  0.90902508  0.67332570     0.75600
O1432       O  0.78200834  0.81213483  0.69404439    -0.57900
O1433       O  0.80468282  0.88550026  0.99746620    -0.48000
O1434       O  0.80332636  0.83299397  0.97881862    -0.54300
C1435       C  0.72619489  0.85265786  0.93656914     0.85700
O1436       O  0.71442875  0.85459475  0.69507234    -0.56200
O1437       O  0.76586976  0.90726937  0.68302412    -0.59500
N1438       N  0.64642196  0.85357636  0.77475776    -0.36000
N1439       N  0.59893913  0.85779222  0.83374192    -0.56600
N1440       N  0.64763641  0.85786423  0.89298864    -0.36000
N1441       N  0.69499690  0.85112791  0.83384099    -0.56600
C1442       C  0.62103890  0.84334943  0.75549886     0.27600
C1443       C  0.67146152  0.84216622  0.75583019     0.27600
C1444       C  0.62165330  0.85276970  0.91409316     0.27600
C1445       C  0.67179289  0.84670314  0.91360517     0.27600
C1446       C  0.58209487  0.84603972  0.80457063     0.36200
C1447       C  0.58292267  0.85066305  0.86588767     0.36200
C1448       C  0.71270188  0.85642511  0.80199464     0.36200
C1449       C  0.71299857  0.85665525  0.86518847     0.36200
C1450       C  0.63001322  0.82388701  0.72545645    -0.21300
C1451       C  0.66182897  0.82337447  0.72543218    -0.21300
C1452       C  0.62900188  0.83685851  0.94756268    -0.21300
C1453       C  0.66070527  0.83349034  0.94762801    -0.21300
C1454       C  0.55678471  0.82928221  0.81830330    -0.22300
C1455       C  0.55737064  0.83217472  0.85757185    -0.22300
C1456       C  0.74224917  0.86545257  0.81339632    -0.22300
C1457       C  0.74248667  0.86520203  0.85327005    -0.22300
C1458       C  0.58992234  0.84999468  0.76572192    -0.17700
C1459       C  0.70262456  0.85049516  0.76346187    -0.17700
C1460       C  0.70344272  0.85137409  0.90401140    -0.17700
C1461       C  0.59138261  0.86098856  0.90257387    -0.17700
H1462       H  0.61517283  0.81071234  0.70625613     0.15200
H1463       H  0.67625704  0.81003110  0.70583868     0.15200
H1464       H  0.61309031  0.82814559  0.96927302     0.15200
H1465       H  0.67380047  0.82216348  0.97005848     0.15200
H1466       H  0.53994989  0.81612327  0.80178295     0.13500
H1467       H  0.54098753  0.82194047  0.87772630     0.13500
H1468       H  0.76196260  0.87126295  0.79543706     0.13500
H1469       H  0.76225637  0.87038910  0.87130141     0.13500
H1470       H  0.64682134  0.87018508  0.79686521     0.26800
H1471       H  0.64893647  0.87142108  0.86801799     0.26800
In1472     In  0.25667209  0.86077835  0.99894919     1.36900
C1473       C  0.21445573  0.81186607  0.67504498     0.78200
O1474       O  0.28633947  0.83129558  0.70835303    -0.60300
O1475       O  0.27995293  0.87975055  0.71751228    -0.51200
C1476       C  0.29330411  0.86190884  0.93564450     0.70900
O1477       O  0.27036616  0.84376702  0.93879108    -0.46000
C1478       C  0.22073731  0.91025515  0.98554342     0.75600
O1479       O  0.24000243  0.81052293  0.99234209    -0.57900
O1480       O  0.23478608  0.90349779  0.68299091    -0.48000
O1481       O  0.21185215  0.83863937  0.68997413    -0.54300
C1482       C  0.29236219  0.85480542  0.72924138     0.85700
O1483       O  0.29731476  0.87947991  0.96455504    -0.56200
O1484       O  0.22710501  0.89020453  0.96005926    -0.59500
N1485       N  0.37092919  0.85629986  0.77353986    -0.36000
N1486       N  0.41918386  0.85926006  0.83303677    -0.56600
N1487       N  0.37207724  0.86559895  0.89179336    -0.36000
N1488       N  0.32334740  0.85750313  0.83239242    -0.56600
C1489       C  0.39631762  0.84659223  0.75381717     0.27600
C1490       C  0.34581812  0.84625362  0.75362806     0.27600
C1491       C  0.39750080  0.85910546  0.91326819     0.27600
C1492       C  0.34709211  0.85623320  0.91256743     0.27600
C1493       C  0.43513555  0.84715458  0.80317630     0.36200
C1494       C  0.43608546  0.85275259  0.86453534     0.36200
C1495       C  0.30513675  0.86098380  0.80079496     0.36200
C1496       C  0.30551720  0.86361679  0.86383972     0.36200
C1497       C  0.38725507  0.82901418  0.72217728    -0.21300
C1498       C  0.35546707  0.82939968  0.72154354    -0.21300
C1499       C  0.38857283  0.84413638  0.94695363    -0.21300
C1500       C  0.35677275  0.84277489  0.94679266    -0.21300
C1501       C  0.46057499  0.83042024  0.81599129    -0.22300
C1502       C  0.46115160  0.83395515  0.85519603    -0.22300
C1503       C  0.27540723  0.86907967  0.81232115    -0.22300
C1504       C  0.27564585  0.87074642  0.85222957    -0.22300
C1505       C  0.42746096  0.85245713  0.76451173    -0.17700
C1506       C  0.31467926  0.85390414  0.76233944    -0.17700
C1507       C  0.31568777  0.86091621  0.90269712    -0.17700
C1508       C  0.42869882  0.86377218  0.90149967    -0.17700
H1509       H  0.40201737  0.81658014  0.70207502     0.15200
H1510       H  0.34126865  0.81765628  0.70043652     0.15200
H1511       H  0.40355448  0.83389476  0.96832551     0.15200
H1512       H  0.34223715  0.83197568  0.96849443     0.15200
H1513       H  0.47705986  0.81725003  0.79885441     0.13500
H1514       H  0.47802473  0.82390151  0.87455201     0.13500
H1515       H  0.25548465  0.87267077  0.79400694     0.13500
H1516       H  0.25600405  0.87620153  0.87058186     0.13500
H1517       H  0.37088632  0.87185222  0.79674874     0.26800
H1518       H  0.37163590  0.87832181  0.86613920     0.26800
N1519       N  0.46053323  0.84767131  0.66600954    -0.36000
N1520       N  0.51038127  0.86978906  0.94123052    -0.56600
N1521       N  0.55741781  0.84224319  0.66736916    -0.36000
N1522       N  0.50874494  0.85057948  0.72530713    -0.56600
C1523       C  0.44695133  0.88081212  0.96786620     0.27600
C1524       C  0.44562372  0.86100832  0.69591652     0.27600
C1525       C  0.57495573  0.88029195  0.96866390     0.27600
C1526       C  0.57239296  0.85598140  0.69690092     0.27600
C1527       C  0.48557523  0.87589831  0.91875501     0.36200
C1528       C  0.53573535  0.87668093  0.91981277     0.36200
C1529       C  0.48394393  0.86203643  0.74453606     0.36200
C1530       C  0.53381166  0.86011865  0.74539427     0.36200
C1531       C  0.42267408  0.90058384  0.97750805    -0.21300
C1532       C  0.42230842  0.88060123  0.68308110    -0.21300
C1533       C  0.60147692  0.89708148  0.97799940    -0.21300
C1534       C  0.59566832  0.87560802  0.68349442    -0.21300
C1535       C  0.49516565  0.88943161  0.88437283    -0.22300
C1536       C  0.52699334  0.88997539  0.88507024    -0.22300
C1537       C  0.49330388  0.88132150  0.77444198    -0.22300
C1538       C  0.52505505  0.88011504  0.77499339    -0.22300
C1539       C  0.45438498  0.87100246  0.93033880    -0.17700
C1540       C  0.45296493  0.85566506  0.73446007    -0.17700
C1541       C  0.56457161  0.85212668  0.73565711    -0.17700
C1542       C  0.56658711  0.87059858  0.93143308    -0.17700
H1543       H  0.40653270  0.91176043  0.95811580     0.15200
H1544       H  0.40706543  0.89510030  0.70038297     0.15200
H1545       H  0.61900375  0.90606169  0.95843394     0.15200
H1546       H  0.61067913  0.89062047  0.70036443     0.15200
H1547       H  0.48070083  0.89876480  0.86178213     0.13500
H1548       H  0.54203988  0.89945647  0.86290075     0.13500
H1549       H  0.47869843  0.89519500  0.79324374     0.13500
H1550       H  0.54005007  0.89310141  0.79416979     0.13500
H1551       H  0.47777095  0.83060886  0.66757891     0.26800
H1552       H  0.53973862  0.82551972  0.66919974     0.26800
In1553     In  0.75688058  0.13068104  0.00739783     1.36900
C1554       C  0.79954487  0.17466858  0.67407596     0.78200
O1555       O  0.72529046  0.15753236  0.71477757    -0.60300
O1556       O  0.73287046  0.11030707  0.73003721    -0.51200
C1557       C  0.72004683  0.13206139  0.94429109     0.70900
O1558       O  0.74573894  0.14612982  0.94547269    -0.46000
C1559       C  0.79151126  0.07895572  0.00871203     0.75600
O1560       O  0.77735112  0.17549018  0.03207575    -0.57900
O1561       O  0.79523125  0.10057299  0.70018409    -0.48000
O1562       O  0.79709682  0.15447476  0.64765468    -0.54300
C1563       C  0.71933279  0.13566503  0.73821204     0.85700
O1564       O  0.71363626  0.11727488  0.97480885    -0.56200
O1565       O  0.76735377  0.08070884  0.98860164    -0.59500
N1566       N  0.64077787  0.14370377  0.78411878    -0.36000
N1567       N  0.59394549  0.14706861  0.84433023    -0.56600
N1568       N  0.64097121  0.13539326  0.90180730    -0.36000
N1569       N  0.68908068  0.13766787  0.84169958    -0.56600
C1570       C  0.61616940  0.15511802  0.76445027     0.27600
C1571       C  0.66655347  0.14988578  0.76286482     0.27600
C1572       C  0.61639356  0.14437812  0.92363108     0.27600
C1573       C  0.66673942  0.14241870  0.92219968     0.27600
C1574       C  0.57796227  0.15953330  0.81500365     0.36200
C1575       C  0.57768059  0.15391377  0.87636203     0.36200
C1576       C  0.70608744  0.13134574  0.80955555     0.36200
C1577       C  0.70665482  0.13005352  0.87266743     0.36200
C1578       C  0.62646361  0.16974927  0.73116777    -0.21300
C1579       C  0.65807972  0.16607487  0.72984530    -0.21300
C1580       C  0.62664217  0.15852559  0.95719659    -0.21300
C1581       C  0.65839441  0.15683326  0.95659980    -0.21300
C1582       C  0.55310127  0.17691697  0.82866156    -0.22300
C1583       C  0.55287692  0.17326159  0.86792769    -0.22300
C1584       C  0.73482599  0.11981039  0.82030087    -0.22300
C1585       C  0.73515571  0.11898460  0.86021640    -0.22300
C1586       C  0.58465338  0.15297635  0.77624349    -0.17700
C1587       C  0.69690787  0.13901518  0.77123010    -0.17700
C1588       C  0.69750233  0.13466338  0.91177178    -0.17700
C1589       C  0.58497314  0.14182301  0.91269417    -0.17700
H1590       H  0.61264075  0.18235772  0.71042454     0.15200
H1591       H  0.67294255  0.17526539  0.70749879     0.15200
H1592       H  0.61267204  0.16966266  0.97923105     0.15200
H1593       H  0.67375662  0.16593610  0.97848435     0.15200
H1594       H  0.53655151  0.19022655  0.81203413     0.13500
H1595       H  0.53626522  0.18333757  0.88786806     0.13500
H1596       H  0.75388650  0.11337492  0.80151399     0.13500
H1597       H  0.75427632  0.11140439  0.87798761     0.13500
H1598       H  0.63960677  0.12920960  0.80822685     0.26800
H1599       H  0.64000151  0.12238196  0.87635658     0.26800
In1600     In  0.24953217  0.12792733  0.68019650     1.36900
C1601       C  0.21128875  0.17536076  0.01086873     0.78200
O1602       O  0.28137947  0.15076846  0.97202106    -0.60300
O1603       O  0.27096853  0.10360731  0.95866598    -0.51200
C1604       C  0.28616809  0.12924834  0.74380485     0.70900
O1605       O  0.25791246  0.13653529  0.74503398    -0.46000
C1606       C  0.21677581  0.07454498  0.67359429     0.75600
O1607       O  0.20293678  0.14855097  0.69695083    -0.57900
O1608       O  0.24086661  0.07442927  0.02770115    -0.48000
O1609       O  0.21965336  0.16097475  0.98079388    -0.54300
C1610       C  0.28607345  0.12792606  0.94958916     0.85700
O1611       O  0.29490289  0.12023413  0.71089981    -0.56200
O1612       O  0.21055142  0.09948135  0.65573815    -0.59500
N1613       N  0.36470272  0.13838688  0.78750727    -0.36000
N1614       N  0.41204855  0.14344838  0.84595414    -0.56600
N1615       N  0.36554609  0.13115560  0.90530246    -0.36000
N1616       N  0.31702872  0.13132844  0.84696159    -0.56600
C1617       C  0.38850168  0.15137264  0.76724260     0.27600
C1618       C  0.33838052  0.14418559  0.76763278     0.27600
C1619       C  0.39036133  0.14125457  0.92567632     0.27600
C1620       C  0.33994045  0.13847652  0.92624598     0.27600
C1621       C  0.42718133  0.15690775  0.81635698     0.36200
C1622       C  0.42851587  0.15063738  0.87750268     0.36200
C1623       C  0.29954982  0.12503401  0.81542121     0.36200
C1624       C  0.30021962  0.12280001  0.87849296     0.36200
C1625       C  0.37699101  0.16674935  0.73521283    -0.21300
C1626       C  0.34548768  0.16186765  0.73515308    -0.21300
C1627       C  0.38055984  0.15645255  0.95874130    -0.21300
C1628       C  0.34886629  0.15408850  0.95963177    -0.21300
C1629       C  0.45159032  0.17521132  0.82946027    -0.22300
C1630       C  0.45253178  0.17108368  0.86862035    -0.22300
C1631       C  0.27139641  0.11228870  0.82701673    -0.22300
C1632       C  0.27175745  0.11104495  0.86691254    -0.22300
C1633       C  0.42027278  0.15038275  0.77776452    -0.17700
C1634       C  0.30835734  0.13257800  0.77682516    -0.17700
C1635       C  0.30919331  0.12927495  0.91715995    -0.17700
C1636       C  0.42163242  0.13851019  0.91396802    -0.17700
H1637       H  0.38990409  0.18053572  0.71443005     0.15200
H1638       H  0.32948342  0.17093287  0.71402985     0.15200
H1639       H  0.39481521  0.16847544  0.97966843     0.15200
H1640       H  0.33437785  0.16366612  0.98209390     0.15200
H1641       H  0.46741930  0.18938095  0.81248880     0.13500
H1642       H  0.46897142  0.18171937  0.88820813     0.13500
H1643       H  0.25234256  0.10509029  0.80883623     0.13500
H1644       H  0.25293803  0.10304371  0.88519683     0.13500
H1645       H  0.36669564  0.12344422  0.81110982     0.26800
H1646       H  0.36638874  0.11730163  0.88050175     0.26800
N1647       N  0.45343555  0.15348597  0.67855072    -0.36000
N1648       N  0.50335430  0.13580311  0.95246121    -0.56600
N1649       N  0.55131455  0.15027968  0.67778685    -0.36000
N1650       N  0.50241894  0.15390165  0.73838440    -0.56600
C1651       C  0.44022309  0.12361009  0.98052354     0.27600
C1652       C  0.43933017  0.14096923  0.70971127     0.27600
C1653       C  0.56660567  0.12523783  0.97915834     0.27600
C1654       C  0.56543998  0.13959795  0.70966222     0.27600
C1655       C  0.47844936  0.12850961  0.93070745     0.36200
C1656       C  0.52846282  0.12984920  0.93016926     0.36200
C1657       C  0.47744987  0.14377573  0.75871968     0.36200
C1658       C  0.52751724  0.14457700  0.75863946     0.36200
C1659       C  0.41647404  0.10334734  0.99107420    -0.21300
C1660       C  0.41758159  0.11877467  0.69867116    -0.21300
C1661       C  0.59029346  0.10482856  0.98869195    -0.21300
C1662       C  0.58711101  0.11688580  0.70022025    -0.21300
C1663       C  0.48779992  0.11515538  0.89615930    -0.22300
C1664       C  0.51957806  0.11598382  0.89584038    -0.22300
C1665       C  0.48678378  0.12540928  0.78941721    -0.22300
C1666       C  0.51853225  0.12593236  0.78936404    -0.22300
C1667       C  0.44737736  0.13255784  0.94269401    -0.17700
C1668       C  0.44625600  0.14864726  0.74789404    -0.17700
C1669       C  0.55857885  0.14960094  0.74709237    -0.17700
C1670       C  0.55939724  0.13494873  0.94178004    -0.17700
H1671       H  0.40118264  0.09035381  0.97219506     0.15200
H1672       H  0.40371573  0.10381366  0.71719078     0.15200
H1673       H  0.60597495  0.09280736  0.96923682     0.15200
H1674       H  0.60117390  0.10327236  0.71977962     0.15200
H1675       H  0.47317965  0.10473321  0.87439757     0.13500
H1676       H  0.53456742  0.10623574  0.87387197     0.13500
H1677       H  0.47213517  0.11182117  0.80848600     0.13500
H1678       H  0.53345392  0.11274961  0.80824263     0.13500
H1679       H  0.47022769  0.17117857  0.67828316     0.26800
H1680       H  0.53500117  0.16828001  0.67646088     0.26800
In1681     In  0.14224639  0.74785927  0.67875679     1.36900
C1682       C  0.19000374  0.79076326  0.01179479     0.78200
O1683       O  0.16080928  0.70685447  0.98004894    -0.60300
O1684       O  0.13079838  0.73614267  0.94900468    -0.51200
C1685       C  0.14360934  0.71127693  0.74223288     0.70900
O1686       O  0.16330200  0.73262328  0.73583747    -0.46000
C1687       C  0.09175269  0.78406801  0.67888025     0.75600
O1688       O  0.16636466  0.79164732  0.69911770    -0.57900
O1689       O  0.09374109  0.76146564  0.03166156    -0.48000
O1690       O  0.19094864  0.76538874  0.99316791    -0.54300
C1691       C  0.14705415  0.71166098  0.94868744     0.85700
O1692       O  0.12267793  0.70963459  0.71702540    -0.56200
O1693       O  0.11528512  0.78931089  0.65823421    -0.59500
N1694       N  0.16653095  0.63507268  0.90401598    -0.36000
N1695       N  0.17708163  0.58918426  0.84497899    -0.56600
N1696       N  0.16171017  0.63428999  0.78663284    -0.36000
N1697       N  0.14954581  0.68117259  0.84525328    -0.56600
C1698       C  0.16354369  0.60756994  0.92343656     0.27600
C1699       C  0.15085730  0.65706609  0.92429640     0.27600
C1700       C  0.15851919  0.60657974  0.76781228     0.27600
C1701       C  0.14552206  0.65612549  0.76691419     0.27600
C1702       C  0.18978670  0.57479205  0.87554006     0.36200
C1703       C  0.18845412  0.57491000  0.81334816     0.36200
C1704       C  0.15126134  0.70017275  0.87657525     0.36200
C1705       C  0.15030817  0.69978519  0.81353972     0.36200
C1706       C  0.14528564  0.61215532  0.95595327    -0.21300
C1707       C  0.13757779  0.64345780  0.95668236    -0.21300
C1708       C  0.13926848  0.61066528  0.73632455    -0.21300
C1709       C  0.13150455  0.64198820  0.73535600    -0.21300
C1710       C  0.21041791  0.55192681  0.86343233    -0.22300
C1711       C  0.20971286  0.55212520  0.82372334    -0.22300
C1712       C  0.15286131  0.73116514  0.86472941    -0.22300
C1713       C  0.15216887  0.73092879  0.82484071    -0.22300
C1714       C  0.17853510  0.57909851  0.91324912    -0.17700
C1715       C  0.14968942  0.68941433  0.91536791    -0.17700
C1716       C  0.14611259  0.68872448  0.77515816    -0.17700
C1717       C  0.17518227  0.57879926  0.77667379    -0.17700
H1718       H  0.13807937  0.59471904  0.97675938     0.15200
H1719       H  0.12307736  0.65489265  0.97790274     0.15200
H1720       H  0.13213132  0.59309376  0.71563940     0.15200
H1721       H  0.11694216  0.65275729  0.71392778     0.15200
H1722       H  0.22332945  0.53581621  0.88127161     0.13500
H1723       H  0.22192770  0.53610429  0.80481824     0.13500
H1724       H  0.15409554  0.75184132  0.88276111     0.13500
H1725       H  0.15225433  0.75141851  0.80647937     0.13500
H1726       H  0.18105909  0.63945546  0.88046149     0.26800
H1727       H  0.17734945  0.63901523  0.80875325     0.26800
In1728     In  0.14368549  0.24460473  0.01186476     1.36900
C1729       C  0.18531250  0.20087565  0.68404667     0.78200
O1730       O  0.15039012  0.29061161  0.70764584    -0.60300
O1731       O  0.13678618  0.25355812  0.74355570    -0.51200
C1732       C  0.14856730  0.28244893  0.94948898     0.70900
O1733       O  0.15564814  0.29069023  0.98328746    -0.46000
C1734       C  0.09171634  0.21011870  0.01244538     0.73200
O1735       O  0.17737338  0.21249777  0.98031994    -0.57900
O1736       O  0.09123595  0.22938434  0.69317475    -0.48000
O1737       O  0.15830235  0.19711053  0.69701314    -0.54300
C1738       C  0.14465313  0.28192818  0.74161465     0.85700
O1739       O  0.13955165  0.25441284  0.94741984    -0.56200
O1740       O  0.11641774  0.20212303  0.02883145    -0.59500
N1741       N  0.16634729  0.35852768  0.90294330    -0.36000
N1742       N  0.17974513  0.40320879  0.84400233    -0.56600
N1743       N  0.16407404  0.35801271  0.78629392    -0.36000
N1744       N  0.14931465  0.31164312  0.84552382    -0.56600
C1745       C  0.16351993  0.38625236  0.92177825     0.27600
C1746       C  0.15023158  0.33692443  0.92333350     0.27600
C1747       C  0.16066834  0.38562140  0.76743711     0.27600
C1748       C  0.14675829  0.33639367  0.76762687     0.27600
C1749       C  0.19184298  0.41814337  0.87462580     0.36200
C1750       C  0.19085195  0.41767958  0.81239750     0.36200
C1751       C  0.15291446  0.29319152  0.87702249     0.36200
C1752       C  0.15131866  0.29292033  0.81393782     0.36200
C1753       C  0.14446384  0.38240088  0.95376233    -0.21300
C1754       C  0.13626162  0.35118013  0.95489366    -0.21300
C1755       C  0.14030386  0.38163068  0.73697719    -0.21300
C1756       C  0.13159670  0.35051298  0.73702560    -0.21300
C1757       C  0.21201905  0.44155521  0.86252979    -0.22300
C1758       C  0.21146696  0.44119160  0.82279177    -0.22300
C1759       C  0.15731194  0.26240491  0.86534372    -0.22300
C1760       C  0.15628457  0.26223264  0.82547015    -0.22300
C1761       C  0.18003521  0.41398218  0.91217095    -0.17700
C1762       C  0.15058677  0.30433977  0.91568696    -0.17700
C1763       C  0.14727593  0.30382343  0.77545339    -0.17700
C1764       C  0.17740351  0.41348286  0.77590941    -0.17700
H1765       H  0.13755380  0.40012589  0.97439141     0.15200
H1766       H  0.12151351  0.34022139  0.97629351     0.15200
H1767       H  0.13277598  0.39918579  0.71659450     0.15200
H1768       H  0.11592407  0.33951277  0.71680500     0.15200
H1769       H  0.22427444  0.45830282  0.88035287     0.13500
H1770       H  0.22315340  0.45766184  0.80390772     0.13500
H1771       H  0.16122035  0.24209662  0.88326803     0.13500
H1772       H  0.15923764  0.24177426  0.80741556     0.13500
H1773       H  0.18159819  0.35358530  0.88028589     0.26800
H1774       H  0.18022388  0.35316050  0.80777616     0.26800
N1775       N  0.17859236  0.54316873  0.67826273    -0.36000
N1776       N  0.18389845  0.49641938  0.95103535    -0.56600
N1777       N  0.17982367  0.44917084  0.67787557    -0.36000
N1778       N  0.18010643  0.49618711  0.73759909    -0.56600
C1779       C  0.19202782  0.55926283  0.97944246     0.27600
C1780       C  0.18732937  0.55984488  0.70950406     0.27600
C1781       C  0.19375878  0.43298470  0.97876464     0.27600
C1782       C  0.18898714  0.43283155  0.70904583     0.27600
C1783       C  0.17282292  0.52169025  0.93220612     0.36200
C1784       C  0.17389255  0.47081032  0.93182386     0.36200
C1785       C  0.17027805  0.52144882  0.75774995     0.36200
C1786       C  0.17075252  0.47054741  0.75738448     0.36200
C1787       C  0.20911658  0.58526239  0.99064204    -0.21300
C1788       C  0.20230238  0.58705348  0.69779615    -0.21300
C1789       C  0.20888247  0.40584342  0.99004728    -0.21300
C1790       C  0.20515304  0.40639199  0.69737921    -0.21300
C1791       C  0.15516307  0.51214744  0.90101540    -0.22300
C1792       C  0.15584848  0.47977641  0.90076432    -0.22300
C1793       C  0.15435888  0.51182973  0.79052110    -0.22300
C1794       C  0.15464328  0.47950399  0.79027264    -0.22300
C1795       C  0.18118024  0.55284160  0.94199212    -0.17700
C1796       C  0.17774013  0.55276900  0.74750568    -0.17700
C1797       C  0.17910030  0.43955206  0.74695010    -0.17700
C1798       C  0.18309756  0.43990052  0.94123498    -0.17700
H1799       H  0.21897926  0.60313600  0.97211336     0.15200
H1800       H  0.21109751  0.60566719  0.71599178     0.15200
H1801       H  0.21738407  0.38724848  0.97157059     0.15200
H1802       H  0.21461463  0.38822412  0.71559442     0.15200
H1803       H  0.14314728  0.52695306  0.88073815     0.13500
H1804       H  0.14440480  0.46458645  0.88027393     0.13500
H1805       H  0.14361018  0.52656130  0.81213341     0.13500
H1806       H  0.14421229  0.46432683  0.81168165     0.13500
H1807       H  0.16333235  0.52416872  0.67852706     0.26800
H1808       H  0.16379018  0.46742074  0.67812138     0.26800
N1809       N  0.14452094  0.94420818  0.63475419    -0.36000
N1810       N  0.19052691  0.99064870  0.65601993    -0.56600
N1811       N  0.14069301  0.03707743  0.65841995    -0.36000
N1812       N  0.07665406  0.99137148  0.64889469    -0.56600
C1813       C  0.16981414  0.92568382  0.63321626     0.27600
C1814       C  0.11942076  0.92629772  0.62698091     0.27600
C1815       C  0.16412353  0.05184226  0.67687076     0.27600
C1816       C  0.11400780  0.05189949  0.66850771     0.27600
C1817       C  0.20981685  0.96591076  0.65209333     0.36200
C1818       C  0.20821461  0.01636494  0.66228721     0.36200
C1819       C  0.08436613  0.96899489  0.62306733     0.36200
C1820       C  0.08074622  0.01901244  0.63027392     0.36200
C1821       C  0.16044016  0.89561418  0.62236470    -0.21300
C1822       C  0.12867693  0.89619532  0.61792065    -0.21300
C1823       C  0.15213775  0.07532650  0.70023447    -0.21300
C1824       C  0.12044295  0.07482177  0.69575237    -0.21300
C1825       C  0.24024395  0.97600617  0.65609118    -0.22300
C1826       C  0.23926104  0.00804656  0.66193123    -0.22300
C1827       C  0.09445474  0.98244190  0.58877046    -0.22300
C1828       C  0.09164831  0.01427786  0.59317259    -0.22300
C1829       C  0.20042670  0.93454070  0.64417457    -0.17700
C1830       C  0.08882661  0.93729573  0.63255895    -0.17700
C1831       C  0.08503256  0.04720250  0.64990684    -0.17700
C1832       C  0.19618420  0.04651829  0.67087868    -0.17700
H1833       H  0.17456462  0.87490228  0.61905955     0.15200
H1834       H  0.11404207  0.87646573  0.61049255     0.15200
H1835       H  0.16500973  0.09134178  0.71841026     0.15200
H1836       H  0.10420709  0.09056048  0.70961731     0.15200
H1837       H  0.26099864  0.96186688  0.65430210     0.13500
H1838       H  0.25909897  0.02314916  0.66644574     0.13500
H1839       H  0.10427370  0.97042573  0.56405230     0.13500
H1840       H  0.09974321  0.03200127  0.57314905     0.13500
H1841       H  0.14309973  0.96704012  0.64495846     0.26800
H1842       H  0.14324023  0.02068285  0.63632311     0.26800
N1843       N  0.96161481  0.13055190  0.68368677    -0.36000
N1844       N  0.00757759  0.17896062  0.67406642    -0.56600
N1845       N  0.05306806  0.12989718  0.65878711    -0.36000
N1846       N  0.00620008  0.08137640  0.66837927    -0.56600
C1847       C  0.94823152  0.15551852  0.70081001     0.27600
C1848       C  0.94794430  0.10464311  0.69856915     0.27600
C1849       C  0.07082197  0.15562479  0.65163650     0.27600
C1850       C  0.06926708  0.10438711  0.64667194     0.27600
C1851       C  0.98247408  0.19778591  0.67774972     0.36200
C1852       C  0.03250382  0.19769290  0.66841315     0.36200
C1853       C  0.97890625  0.06654212  0.66279241     0.36200
C1854       C  0.02818051  0.06425408  0.65036335     0.36200
C1855       C  0.92665721  0.14532030  0.72797837    -0.21300
C1856       C  0.92654486  0.11308763  0.72661439    -0.21300
C1857       C  0.09834348  0.14602775  0.63415897    -0.21300
C1858       C  0.09697213  0.11412821  0.63033701    -0.21300
C1859       C  0.99154127  0.22884018  0.67369170    -0.22300
C1860       C  0.02319162  0.22874913  0.66829829    -0.22300
C1861       C  0.98316662  0.04058580  0.63947083    -0.22300
C1862       C  0.01439993  0.03883992  0.63199771    -0.22300
C1863       C  0.95259497  0.18691839  0.68894054    -0.17700
C1864       C  0.95142435  0.07437274  0.68288490    -0.17700
C1865       C  0.06010327  0.07235768  0.64978169    -0.17700
C1866       C  0.06326698  0.18729474  0.66132440    -0.17700
H1867       H  0.91207748  0.15961684  0.74638448     0.15200
H1868       H  0.91151414  0.09769749  0.74308754     0.15200
H1869       H  0.11755455  0.15989513  0.62378453     0.15200
H1870       H  0.11454412  0.09971260  0.61678910     0.15200
H1871       H  0.97764398  0.24973443  0.67626225     0.13500
H1872       H  0.03758116  0.24928604  0.66401746     0.13500
H1873       H  0.96568748  0.02434387  0.62935098     0.13500
H1874       H  0.02479536  0.02171043  0.61313389     0.13500
H1875       H  0.97571054  0.13130605  0.65912515     0.26800
H1876       H  0.03271089  0.12955565  0.67484135     0.26800
N1877       N  0.05417978  0.86099034  0.66382342    -0.36000
N1878       N  0.00839188  0.90900912  0.66564541    -0.56600
N1879       N  0.96146552  0.85781946  0.67375860    -0.36000
N1880       N  0.00843587  0.81062561  0.67298821    -0.56600
C1881       C  0.07020010  0.88819156  0.66836510     0.27600
C1882       C  0.07095050  0.83803367  0.68062517     0.27600
C1883       C  0.94436004  0.88304369  0.66379361     0.27600
C1884       C  0.94508347  0.83214023  0.66288797     0.27600
C1885       C  0.03099237  0.92436936  0.64584313     0.36200
C1886       C  0.98169127  0.92440803  0.65900658     0.36200
C1887       C  0.03424153  0.79301094  0.67583080     0.36200
C1888       C  0.98388373  0.79084782  0.67450070     0.36200
C1889       C  0.09630230  0.88277334  0.69053265    -0.21300
C1890       C  0.09716275  0.85100870  0.69747709    -0.21300
C1891       C  0.91816499  0.87343579  0.64398463    -0.21300
C1892       C  0.91824218  0.84131253  0.64419775    -0.21300
C1893       C  0.01796929  0.94879492  0.62505070    -0.22300
C1894       C  0.98686339  0.94902164  0.63384231    -0.22300
C1895       C  0.02605600  0.76157385  0.67848010    -0.22300
C1896       C  0.99411482  0.76027045  0.67827898    -0.22300
C1897       C  0.06293389  0.91656742  0.64897669    -0.17700
C1898       C  0.06465125  0.80541782  0.67860433    -0.17700
C1899       C  0.95270886  0.80059365  0.67090015    -0.17700
C1900       C  0.95218143  0.91451211  0.67205358    -0.17700
H1901       H  0.11361330  0.89971601  0.69933699     0.15200
H1902       H  0.11520927  0.83874874  0.71288357     0.15200
H1903       H  0.90070204  0.88805632  0.63083850     0.15200
H1904       H  0.90070646  0.82636324  0.63152247     0.15200
H1905       H  0.02881411  0.96426213  0.60442526     0.13500
H1906       H  0.96968007  0.96439270  0.62144191     0.13500
H1907       H  0.04119411  0.74156875  0.68121242     0.13500
H1908       H  0.98029201  0.73915500  0.68032217     0.13500
H1909       H  0.03514253  0.85774383  0.64576291     0.26800
H1910       H  0.98128120  0.85842092  0.69087110     0.26800
N1911       N  0.86925615  0.04164509  0.68638618    -0.36000
N1912       N  0.91728854  0.99458796  0.68600806    -0.56600
N1913       N  0.87083096  0.94691883  0.67796564    -0.36000
N1914       N  0.82145302  0.99364266  0.68107739    -0.56600
C1915       C  0.89502419  0.05840247  0.67695281     0.27600
C1916       C  0.84457983  0.05843948  0.67433127     0.27600
C1917       C  0.89607815  0.93022995  0.68876714     0.27600
C1918       C  0.84567733  0.93005528  0.68893556     0.27600
C1919       C  0.93332897  0.01975945  0.69835800     0.36200
C1920       C  0.93566059  0.96958167  0.69164001     0.36200
C1921       C  0.80252685  0.01883872  0.68018627     0.36200
C1922       C  0.80328416  0.96790239  0.67763923     0.36200
C1923       C  0.88652627  0.08557391  0.65788758    -0.21300
C1924       C  0.85475974  0.08582250  0.65676072    -0.21300
C1925       C  0.88685126  0.90379546  0.70897872    -0.21300
C1926       C  0.85506430  0.90332173  0.70837080    -0.21300
C1927       C  0.96116526  0.01048095  0.71454069    -0.22300
C1928       C  0.96275616  0.97855463  0.71001684    -0.22300
C1929       C  0.77198086  0.00908074  0.67683063    -0.22300
C1930       C  0.77250115  0.97683896  0.67441073    -0.22300
C1931       C  0.92579897  0.05054427  0.68736182    -0.17700
C1932       C  0.81296390  0.05030561  0.67896377    -0.17700
C1933       C  0.81448708  0.93675470  0.67966841    -0.17700
C1934       C  0.92726890  0.93878334  0.68134106    -0.17700
H1935       H  0.90155149  0.10357477  0.64616286     0.15200
H1936       H  0.84071973  0.10388519  0.64371410     0.15200
H1937       H  0.90152846  0.88654478  0.72258172     0.15200
H1938       H  0.84041894  0.88541448  0.72109478     0.15200
H1939       H  0.97915409  0.02534765  0.72635487     0.13500
H1940       H  0.98155000  0.96374169  0.71947711     0.13500
H1941       H  0.75147989  0.02351740  0.67498755     0.13500
H1942       H  0.75232091  0.96203466  0.67116792     0.13500
H1943       H  0.86839403  0.02155895  0.70347542     0.26800
H1944       H  0.87080972  0.96667552  0.66024162     0.26800
loop_ 
_geom_bond_atom_site_label_1 
_geom_bond_atom_site_label_2 
_geom_bond_distance 
_geom_bond_site_symmetry_2 
_ccdc_geom_bond_type 
In1          O12   2.252       .  S
In1           O6   2.275       .  S
In1           O8   2.261       .  S
In1          O13   2.242       .  S
In1         O651   2.262       .  S
In1         O652   2.299       .  S
In1         O657   2.287       .  S
In1         O658   2.269       .  S
C2           O10   1.262       .  A
C2         O1304   1.259   1_554  A
C2         C1426   1.479       .  S
O3        In1297   2.258       .  S
O3           C11   1.259       .  A
O4        In1297   2.306       .  S
O4           C11   1.261       .  A
C5           O12   1.261       .  A
C5            O6   1.261       .  A
C5           C36   1.491       .  S
C7           O13   1.259       .  A
C7          O657   1.258       .  A
C7         C1251   1.491       .  S
O8          C650   1.260       .  A
O9        In1297   2.285   1_556  S
O9         C1303   1.259   1_556  A
O10       In1297   2.286       .  S
C11          C35   1.503       .  S
N14          C19   1.354       .  A
N14          C18   1.358       .  A
N14          H46   1.043       .  S
N15          C22   1.344       .  A
N15          C23   1.345       .  A
N16          C21   1.351       .  A
N16          C20   1.357       .  A
N16          H47   1.042       .  S
N17          C24   1.357       .  A
N17          C25   1.356       .  A
C18          C26   1.386       .  A
C18          C34   1.422       .  A
C19          C35   1.418       .  A
C19          C27   1.385       .  A
C20          C28   1.384       .  A
C20          C37   1.419       .  A
C21          C36   1.417       .  A
C21          C29   1.389       .  A
C22          C34   1.405       .  A
C22          C30   1.387       .  A
C23          C37   1.404       .  A
C23          C31   1.386       .  A
C24          C32   1.387       .  A
C24          C35   1.423       .  A
C25          C33   1.387       .  A
C25          C36   1.423       .  A
C26          C27   1.378       .  A
C26          H38   1.081       .  S
C27          H39   1.080       .  S
C28          C29   1.377       .  A
C28          H40   1.082       .  S
C29          H41   1.079       .  S
C30          C31   1.376       .  A
C30          H42   1.082       .  S
C31          H43   1.082       .  S
C32          C33   1.383       .  A
C32          H44   1.081       .  S
C33          H45   1.082       .  S
C34         C118   1.504       .  S
C37         C117   1.502       .  S
In48         O59   2.280       .  S
In48         O53   2.231       .  S
In48         O55   2.266   1_554  S
In48         O60   2.213       .  S
In48       O1346   2.242   1_554  S
In48       O1347   2.292   1_554  S
In48       O1352   2.292       .  S
In48       O1353   2.273       .  S
C49          O57   1.258       .  A
C49         O703   1.257       .  A
C49         C906   1.477       .  S
O50        In696   2.243       .  S
O50          C58   1.258       .  A
O51        In696   2.298       .  S
O51          C58   1.262       .  A
C52          O59   1.260       .  A
C52          O53   1.259       .  A
C52          C82   1.490       .  S
C54          O60   1.259       .  A
C54        O1352   1.263       .  A
C54         C567   1.497       .  S
O55        C1345   1.258   1_556  A
O56        In696   2.290       .  S
O56         C702   1.263       .  A
O57        In696   2.282       .  S
C58          C83   1.494       .  S
N61          C66   1.349       .  A
N61          C65   1.356       .  A
N61          H93   1.043       .  S
N62          C69   1.344       .  A
N62          C70   1.342       .  A
N63          C68   1.352       .  A
N63          C67   1.355       .  A
N63          H94   1.043       .  S
N64          C71   1.353       .  A
N64          C72   1.354       .  A
C65          C73   1.385       .  A
C65          C81   1.415       .  A
C66          C82   1.414       .  A
C66          C74   1.388       .  A
C67          C75   1.388       .  A
C67          C84   1.419       .  A
C68          C83   1.414       .  A
C68          C76   1.386       .  A
C69          C81   1.402       .  A
C69          C77   1.385       .  A
C70          C84   1.404       .  A
C70          C78   1.387       .  A
C71          C79   1.388       .  A
C71          C82   1.420       .  A
C72          C80   1.385       .  A
C72          C83   1.418       .  A
C73          C74   1.376       .  A
C73          H85   1.081       .  S
C74          H86   1.081       .  S
C75          C76   1.379       .  A
C75          H87   1.082       .  S
C76          H88   1.081       .  S
C77          C78   1.376       .  A
C77          H89   1.082       .  S
C78          H90   1.082       .  S
C79          C80   1.382       .  A
C79          H91   1.081       .  S
C80          H92   1.082       .  S
C81         C115   1.500       .  S
C84         C116   1.496       .  S
N95          C99   1.348       .  A
N95        C1396   1.348   1_554  A
N95         H127   1.043       .  S
N96         C103   1.349       .  A
N96         C104   1.349       .  A
N97         C101   1.349       .  A
N97        C1398   1.348   1_554  A
N97         H128   1.043       .  S
N98         C105   1.349       .  A
N98         C106   1.351       .  A
C99         C107   1.388       .  A
C99         C115   1.412       .  A
C100        N743   1.346       .  A
C100        C116   1.410       .  A
C100        C108   1.388       .  A
C101        C109   1.387       .  A
C101        C118   1.412       .  A
C102        N745   1.348       .  A
C102        C117   1.408       .  A
C102        C110   1.386       .  A
C103        C115   1.416       .  A
C103        C111   1.386       .  A
C104        C118   1.418       .  A
C104        C112   1.387       .  A
C105        C113   1.387       .  A
C105        C116   1.417       .  A
C106        C114   1.385       .  A
C106        C117   1.416       .  A
C107       C1404   1.381   1_554  A
C107        H119   1.082       .  S
C108        C755   1.381       .  A
C108        H120   1.082       .  S
C109       C1406   1.381   1_554  A
C109        H121   1.082       .  S
C110        C757   1.380       .  A
C110        H122   1.082       .  S
C111        C112   1.381       .  A
C111        H123   1.081       .  S
C112        H124   1.081       .  S
C113        C114   1.380       .  A
C113        H125   1.081       .  S
C114        H126   1.081       .  S
In129       O140   2.228       .  S
In129       O134   2.290       .  S
In129       O136   2.280       .  S
In129       O141   2.290       .  S
In129      O1427   2.274   1_554  S
In129      O1428   2.289   1_554  S
In129      O1433   2.228   1_554  S
In129      O1434   2.254   1_554  S
C130        O138   1.261       .  A
C130        O784   1.261       .  A
C130        C650   1.475       .  S
O131       In777   2.270       .  S
O131        C139   1.260       .  A
O132       In777   2.277       .  S
O132        C139   1.259       .  A
C133        O140   1.261       .  A
C133        O134   1.262       .  A
C133        C163   1.495       .  S
C135        O141   1.258       .  A
C135       O1433   1.257   1_554  A
C135        C637   1.491       .  S
O136       C1426   1.263       .  A
O137       In777   2.230       .  S
O137        C783   1.257       .  A
O138       In777   2.260       .  S
C139        C164   1.493       .  S
N142        C147   1.353       .  A
N142        C146   1.353       .  A
N142        H174   1.044       .  S
N143        C150   1.345       .  A
N143        C151   1.344       .  A
N144        C149   1.355       .  A
N144        C148   1.353       .  A
N144        H175   1.041       .  S
N145        C152   1.352       .  A
N145        C153   1.353       .  A
C146        C154   1.384       .  A
C146        C162   1.409       .  A
C147        C163   1.412       .  A
C147        C155   1.386       .  A
C148        C156   1.386       .  A
C148        C165   1.420       .  A
C149        C164   1.418       .  A
C149        C157   1.387       .  A
C150        C162   1.397       .  A
C150        C158   1.386       .  A
C151        C165   1.399       .  A
C151        C159   1.385       .  A
C152        C160   1.386       .  A
C152        C163   1.417       .  A
C153        C161   1.387       .  A
C153        C164   1.419       .  A
C154        C155   1.372       .  A
C154        H166   1.081       .  S
C155        H167   1.081       .  S
C156        C157   1.376       .  A
C156        H168   1.081       .  S
C157        H169   1.079       .  S
C158        C159   1.367       .  A
C158        H170   1.082       .  S
C159        H171   1.082       .  S
C160        C161   1.383       .  A
C160        H172   1.081       .  S
C161        H173   1.082       .  S
C162        C245   1.520       .  S
C165        C246   1.519       .  S
In176       O187   2.257       .  S
In176       O181   2.286       .  S
In176       O183   2.271       .  S
In176       O188   2.243       .  S
In176       O826   2.270       .  S
In176       O827   2.287       .  S
In176       O832   2.269       .  S
In176       O833   2.256       .  S
C177        O185   1.258       .  A
C177       O1479   1.259   1_554  A
C177       C1682   1.474       .  S
O178      In1472   2.282   1_554  S
O178        C186   1.262       .  A
O179      In1472   2.283   1_554  S
O179        C186   1.259       .  A
C180        O187   1.264       .  A
C180        O181   1.258       .  A
C180        C211   1.497       .  S
C182        O188   1.257       .  A
C182        O832   1.261       .  A
C182       C1181   1.485       .  S
O183        C825   1.259       .  A
O184      In1472   2.252   1_554  S
O184       C1478   1.261   1_554  A
O185      In1472   2.266   1_554  S
C186        C210   1.500       .  S
N189        C194   1.356       .  A
N189        C193   1.356       .  A
N189        H221   1.043       .  S
N190        C197   1.344       .  A
N190        C198   1.344       .  A
N191        C196   1.351       .  A
N191        C195   1.355       .  A
N191        H222   1.042       .  S
N192        C199   1.357       .  A
N192        C200   1.358       .  A
C193        C201   1.382       .  A
C193        C209   1.415       .  A
C194        C210   1.417       .  A
C194        C202   1.385       .  A
C195        C203   1.385       .  A
C195        C212   1.414       .  A
C196        C211   1.408       .  A
C196        C204   1.384       .  A
C197        C209   1.394       .  A
C197        C205   1.385       .  A
C198        C212   1.399       .  A
C198        C206   1.386       .  A
C199        C207   1.387       .  A
C199        C210   1.423       .  A
C200        C208   1.386       .  A
C200        C211   1.424       .  A
C201        C202   1.373       .  A
C201        H213   1.079       .  S
C202        H214   1.077       .  S
C203        C204   1.369       .  A
C203        H215   1.080       .  S
C204        H216   1.080       .  S
C205        C206   1.366       .  A
C205        H217   1.082       .  S
C206        H218   1.082       .  S
C207        C208   1.384       .  A
C207        H219   1.082       .  S
C208        H220   1.082       .  S
C209        C244   1.520       .  S
C212        C243   1.517       .  S
N223        C228   1.346   1_556  A
N223       C1523   1.348       .  A
N223        H255   1.044   1_556  S
N224        C231   1.350       .  A
N224        C232   1.349       .  A
N225        C230   1.347       .  A
N225       C1525   1.345   1_554  A
N225        H256   1.042       .  S
N226        C233   1.350       .  A
N226        C234   1.351       .  A
C227        N871   1.344       .  A
C227        C235   1.386       .  A
C227        C243   1.396       .  A
C228        C244   1.398       .  A
C228        C236   1.384       .  A
C229        N873   1.346       .  A
C229        C237   1.385       .  A
C229        C246   1.396       .  A
C230        C245   1.403       .  A
C230        C238   1.386       .  A
C231        C243   1.407       .  A
C231        C239   1.383       .  A
C232        C246   1.411       .  A
C232        C240   1.386       .  A
C233        C241   1.385       .  A
C233        C244   1.416       .  A
C234        C242   1.385       .  A
C234        C245   1.416       .  A
C235        C884   1.371       .  A
C235        H247   1.082       .  S
C236       C1531   1.372   1_554  A
C236        H248   1.082       .  S
C237        C886   1.369       .  A
C237        H249   1.082       .  S
C238       C1533   1.374   1_554  A
C238        H250   1.082       .  S
C239        C240   1.370       .  A
C239        H251   1.081       .  S
C240        H252   1.081       .  S
C241        C242   1.373       .  A
C241        H253   1.081       .  S
C242        H254   1.081       .  S
In257       O268   2.262       .  S
In257       O262   2.301       .  S
In257       O264   2.276       .  S
In257       O269   2.280       .  S
In257       O907   2.259       .  S
In257       O908   2.292       .  S
In257       O913   2.239       .  S
In257       O914   2.263       .  S
C258        O266   1.259   1_554  A
C258       O1560   1.260       .  A
C258       C1345   1.474       .  S
O259      In1553   2.260       .  S
O259        C267   1.263       .  A
O260      In1553   2.291       .  S
O260        C267   1.262       .  A
C261        O268   1.260       .  A
C261        O262   1.258       .  A
C261        C292   1.505       .  S
C263        O269   1.259       .  A
C263        O913   1.257       .  A
C263       C1284   1.491       .  S
O264        C906   1.261       .  A
O265      In1553   2.227       .  S
O265       C1559   1.258       .  A
O266      In1553   2.262   1_556  S
C267        C291   1.508       .  S
N270        C275   1.357       .  A
N270        C274   1.355       .  A
N270        H302   1.043       .  S
N271        C278   1.341       .  A
N271        C279   1.343       .  A
N272        C277   1.354       .  A
N272        C276   1.359       .  A
N272        H303   1.043       .  S
N273        C280   1.360       .  A
N273        C281   1.358       .  A
C274        C282   1.382       .  A
C274        C290   1.416       .  A
C275        C291   1.420       .  A
C275        C283   1.389       .  A
C276        C284   1.383       .  A
C276        C293   1.417       .  A
C277        C292   1.418       .  A
C277        C285   1.386       .  A
C278        C290   1.391       .  A
C278        C286   1.385       .  A
C279        C293   1.392       .  A
C279        C287   1.385       .  A
C280        C288   1.387       .  A
C280        C291   1.427       .  A
C281        C289   1.387       .  A
C281        C292   1.427       .  A
C282        C283   1.372       .  A
C282        H294   1.081       .  S
C283        H295   1.077       .  S
C284        C285   1.373       .  A
C284        H296   1.080       .  S
C285        H297   1.080       .  S
C286        C287   1.365       .  A
C286        H298   1.082       .  S
C287        H299   1.082       .  S
C288        C289   1.383       .  A
C288        H300   1.081       .  S
C289        H301   1.081       .  S
C290        C373   1.518       .  S
C293        C374   1.523       .  S
In304       O315   2.255       .  S
In304       O309   2.294       .  S
In304       O311   2.256       .  S
In304       O316   2.240       .  S
In304      O1602   2.250   1_554  S
In304      O1603   2.294   1_554  S
In304      O1608   2.269       .  S
In304      O1609   2.270   1_554  S
C305        O313   1.261       .  A
C305        O959   1.261       .  A
C305       C1081   1.474       .  S
O306       In952   2.258       .  S
O306        C314   1.260       .  A
O307       In952   2.281       .  S
O307        C314   1.261       .  A
C308        O315   1.262       .  A
C308        O309   1.260       .  A
C308        C338   1.505       .  S
C310        O316   1.256       .  A
C310       O1608   1.257       .  A
C310        C536   1.482       .  S
O311       C1601   1.260       .  A
O312       In952   2.284       .  S
O312        C958   1.258       .  A
O313       In952   2.263       .  S
C314        C339   1.499       .  S
N317        C322   1.354       .  A
N317        C321   1.357       .  A
N317        H349   1.043       .  S
N318        C325   1.342       .  A
N318        C326   1.342       .  A
N319        C324   1.356       .  A
N319        C323   1.356       .  A
N319        H350   1.042       .  S
N320        C327   1.357       .  A
N320        C328   1.357       .  A
C321        C329   1.384       .  A
C321        C337   1.417       .  A
C322        C338   1.417       .  A
C322        C330   1.386       .  A
C323        C331   1.381       .  A
C323        C340   1.418       .  A
C324        C339   1.422       .  A
C324        C332   1.389       .  A
C325        C337   1.395       .  A
C325        C333   1.386       .  A
C326        C340   1.395       .  A
C326        C334   1.385       .  A
C327        C335   1.387       .  A
C327        C338   1.425       .  A
C328        C336   1.386       .  A
C328        C339   1.423       .  A
C329        C330   1.374       .  A
C329        H341   1.081       .  S
C330        H342   1.081       .  S
C331        C332   1.374       .  A
C331        H343   1.080       .  S
C332        H344   1.076       .  S
C333        C334   1.367       .  A
C333        H345   1.082       .  S
C334        H346   1.082       .  S
C335        C336   1.381       .  A
C335        H347   1.081       .  S
C336        H348   1.081       .  S
C337        C372   1.521       .  S
C340        C371   1.522       .  S
N351        C356   1.346       .  A
N351       C1651   1.345   1_554  A
N351        H383   1.044       .  S
N352        C359   1.353       .  A
N352        C360   1.353       .  A
N353        C358   1.344       .  A
N353       C1653   1.345   1_554  A
N353        H384   1.044       .  S
N354        C361   1.353       .  A
N354        C362   1.352       .  A
C355        N999   1.346       .  A
C355        C363   1.386       .  A
C355        C371   1.397       .  A
C356        C372   1.395       .  A
C356        C364   1.385       .  A
C357       N1001   1.347       .  A
C357        C365   1.386       .  A
C357        C374   1.400       .  A
C358        C373   1.395       .  A
C358        C366   1.385       .  A
C359        C371   1.417       .  A
C359        C367   1.384       .  A
C360        C374   1.418       .  A
C360        C368   1.384       .  A
C361        C369   1.384       .  A
C361        C372   1.415       .  A
C362        C370   1.384       .  A
C362        C373   1.416       .  A
C363       C1012   1.371       .  A
C363        H375   1.082       .  S
C364       C1659   1.370   1_554  A
C364        H376   1.082       .  S
C365       C1014   1.372       .  A
C365        H377   1.082       .  S
C366       C1661   1.370   1_554  A
C366        H378   1.082       .  S
C367        C368   1.372       .  A
C367        H379   1.080       .  S
C368        H380   1.080       .  S
C369        C370   1.372       .  A
C369        H381   1.080       .  S
C370        H382   1.080       .  S
In385       O396   2.268       .  S
In385       O390   2.280       .  S
In385       O392   2.263       .  S
In385       O397   2.243   1_554  S
In385      O1683   2.254   1_554  S
In385      O1684   2.302   1_554  S
In385      O1689   2.288       .  S
In385      O1690   2.268   1_554  S
C386        O394   1.263       .  A
C386       O1040   1.260       .  A
C386        C825   1.471       .  S
O387      In1033   2.252       .  S
O387        C395   1.259       .  A
O388      In1033   2.288       .  S
O388        C395   1.260       .  A
C389        O396   1.262       .  A
C389        O390   1.263       .  A
C389        C420   1.501       .  S
C391        O397   1.258   1_554  A
C391       O1689   1.262       .  A
C391        C602   1.491       .  S
O392       C1682   1.260       .  A
O393      In1033   2.269       .  S
O393       C1039   1.260       .  A
O394      In1033   2.270       .  S
C395        C419   1.490       .  S
N398        C403   1.349       .  A
N398        C402   1.355       .  A
N398        H430   1.043       .  S
N399        C406   1.346       .  A
N399        C407   1.344       .  A
N400        C405   1.357       .  A
N400        C404   1.359       .  A
N400        H431   1.042       .  S
N401        C408   1.355       .  A
N401        C409   1.355       .  A
C402        C410   1.387       .  A
C402        C418   1.417       .  A
C403        C419   1.410       .  A
C403        C411   1.385       .  A
C404        C412   1.384       .  A
C404        C421   1.426       .  A
C405        C420   1.423       .  A
C405        C413   1.386       .  A
C406        C418   1.407       .  A
C406        C414   1.386       .  A
C407        C421   1.407       .  A
C407        C415   1.387       .  A
C408        C416   1.385       .  A
C408        C419   1.419       .  A
C409        C417   1.387       .  A
C409        C420   1.421       .  A
C410        C411   1.377       .  A
C410        H422   1.081       .  S
C411        H423   1.081       .  S
C412        C413   1.378       .  A
C412        H424   1.080       .  S
C413        H425   1.077       .  S
C414        C415   1.376       .  A
C414        H426   1.082       .  S
C415        H427   1.082       .  S
C416        C417   1.381       .  A
C416        H428   1.082       .  S
C417        H429   1.081       .  S
C418        C499   1.502       .  S
C421        C500   1.507       .  S
In432       O443   2.268       .  S
In432       O437   2.280       .  S
In432       O439   2.263       .  S
In432       O444   2.278       .  S
In432      O1082   2.265       .  S
In432      O1083   2.311       .  S
In432      O1088   2.247       .  S
In432      O1089   2.264       .  S
C433        O441   1.258       .  A
C433       O1735   1.260   1_554  A
C433       C1601   1.473       .  S
O434      In1728   2.252       .  S
O434        C442   1.261       .  A
O435      In1728   2.278       .  S
O435        C442   1.264       .  A
C436        O443   1.262       .  A
C436        O437   1.262       .  A
C436        C466   1.496       .  S
C438        O444   1.259       .  A
C438       O1088   1.258       .  A
C438       C1218   1.490       .  S
O439       C1081   1.260       .  A
O440      In1728   2.276   1_556  S
O440       C1734   1.261   1_556  A
O441      In1728   2.258       .  S
C442        C467   1.485       .  S
N445        C450   1.354       .  A
N445        C449   1.355       .  A
N445        H477   1.043       .  S
N446        C453   1.345       .  A
N446        C454   1.346       .  A
N447        C452   1.351       .  A
N447        C451   1.356       .  A
N447        H478   1.043       .  S
N448        C455   1.355       .  A
N448        C456   1.353       .  A
C449        C457   1.386       .  A
C449        C465   1.421       .  A
C450        C466   1.417       .  A
C450        C458   1.387       .  A
C451        C459   1.387       .  A
C451        C468   1.420       .  A
C452        C467   1.412       .  A
C452        C460   1.385       .  A
C453        C465   1.409       .  A
C453        C461   1.387       .  A
C454        C468   1.408       .  A
C454        C462   1.387       .  A
C455        C463   1.388       .  A
C455        C466   1.422       .  A
C456        C464   1.386       .  A
C456        C467   1.417       .  A
C457        C458   1.379       .  A
C457        H469   1.082       .  S
C458        H470   1.080       .  S
C459        C460   1.380       .  A
C459        H471   1.081       .  S
C460        H472   1.080       .  S
C461        C462   1.378       .  A
C461        H473   1.082       .  S
C462        H474   1.082       .  S
C463        C464   1.385       .  A
C463        H475   1.082       .  S
C464        H476   1.082       .  S
C465        C502   1.503       .  S
C468        C501   1.503       .  S
N479        C484   1.348       .  A
N479       C1779   1.347   1_554  A
N479        H511   1.044       .  S
N480        C487   1.350       .  A
N480        C488   1.350       .  A
N481        C486   1.348       .  A
N481       C1781   1.348   1_554  A
N481        H512   1.042       .  S
N482        C489   1.352       .  A
N482        C490   1.350       .  A
C483       N1127   1.349       .  A
C483        C491   1.388       .  A
C483        C499   1.414       .  A
C484        C500   1.407       .  A
C484        C492   1.386       .  A
C485       N1129   1.350       .  A
C485        C493   1.386       .  A
C485        C502   1.412       .  A
C486        C501   1.413       .  A
C486        C494   1.388       .  A
C487        C499   1.417       .  A
C487        C495   1.386       .  A
C488        C502   1.416       .  A
C488        C496   1.386       .  A
C489        C497   1.385       .  A
C489        C500   1.418       .  A
C490        C498   1.386       .  A
C490        C501   1.418       .  A
C491       C1140   1.381       .  A
C491        H503   1.082       .  S
C492       C1787   1.381   1_554  A
C492        H504   1.082       .  S
C493       C1142   1.381       .  A
C493        H505   1.082       .  S
C494       C1789   1.382   1_554  A
C494        H506   1.082       .  S
C495        C496   1.378       .  A
C495        H507   1.081       .  S
C496        H508   1.081       .  S
C497        C498   1.381       .  A
C497        H509   1.081       .  S
C498        H510   1.081       .  S
N513        C518   1.353       .  A
N513        C517   1.353       .  A
N513        H545   1.037       .  S
N514        C521   1.349       .  A
N514        C522   1.350   1_566  A
N515        C520   1.353       .  A
N515        C519   1.348       .  A
N515        H546   1.042   1_554  S
N516        C523   1.348       .  A
N516        C524   1.353   1_565  A
C517        C525   1.394       .  A
C517        C533   1.426       .  A
C518        C534   1.415       .  A
C518        C526   1.381       .  A
C519        C527   1.387       .  A
C519        C536   1.411       .  A
C520        C535   1.413   1_554  A
C520        C528   1.387       .  A
C521        C533   1.417       .  A
C521        C529   1.386       .  A
C522        C536   1.415       .  A
C522        C530   1.388   1_554  A
C523        C531   1.387       .  A
C523        C534   1.401       .  A
C524        C532   1.381       .  A
C524        C535   1.394       .  A
C525        C526   1.378       .  A
C525        H537   1.080       .  S
C526        H538   1.082       .  S
C527        C528   1.378       .  A
C527        H539   1.082       .  S
C528        H540   1.082       .  S
C529        C530   1.377   1_565  A
C529        H541   1.083       .  S
C530        H542   1.080   1_556  S
C531        C532   1.375   1_565  A
C531        H543   1.082       .  S
C532        H544   1.082       .  S
C533       C1478   1.482       .  S
C534        C601   1.530       .  S
C535        C569   1.516       .  S
N547        C552   1.352       .  A
N547        C551   1.347       .  A
N547        H579   1.043   1_554  S
N548        C555   1.356   1_455  A
N548        C556   1.351       .  A
N549        C554   1.361   1_554  A
N549        C553   1.356   1_554  A
N549        H580   1.038       .  S
N550        C557   1.348   1_454  A
N550        C558   1.346   1_554  A
C551        C559   1.389       .  A
C551        C567   1.411       .  A
C552        C568   1.408       .  A
C552        C560   1.385       .  A
C553        C561   1.391       .  A
C553        C570   1.427   1_556  A
C554        C569   1.426       .  A
C554        C562   1.386       .  A
C555        C567   1.420       .  A
C555        C563   1.385       .  A
C556        C570   1.422       .  A
C556        C564   1.388       .  A
C557        C565   1.380       .  A
C557        C568   1.408   1_556  A
C558        C566   1.391       .  A
C558        C569   1.416       .  A
C559        C560   1.374       .  A
C559        H571   1.082       .  S
C560        H572   1.082       .  S
C561        C562   1.372       .  A
C561        H573   1.082       .  S
C562        H574   1.083       .  S
C563        C564   1.379   1_655  A
C563        H575   1.080       .  S
C564        H576   1.080       .  S
C565        C566   1.367   1_655  A
C565        H577   1.082       .  S
C566        H578   1.074       .  S
C568        C635   1.501       .  S
C570       C1734   1.491       .  S
N581        C586   1.356   1_556  A
N581        C585   1.358       .  A
N581        H613   1.044       .  S
N582        C589   1.356       .  A
N582        C590   1.350   1_455  A
N583        C588   1.354   1_554  A
N583        C587   1.352   1_554  A
N583        H614   1.043       .  S
N584        C591   1.351       .  A
N584        C592   1.352   1_455  A
C585        C593   1.386   1_556  A
C585        C601   1.422       .  A
C586        C602   1.418       .  A
C586        C594   1.387       .  A
C587        C595   1.386       .  A
C587        C604   1.409   1_556  A
C588        C603   1.412   1_556  A
C588        C596   1.387       .  A
C589        C601   1.425       .  A
C589        C597   1.390       .  A
C590        C604   1.413   1_556  A
C590        C598   1.383       .  A
C591        C599   1.387       .  A
C591        C602   1.416       .  A
C592        C600   1.385       .  A
C592        C603   1.415       .  A
C593        C594   1.376       .  A
C593        H605   1.082       .  S
C594        H606   1.082       .  S
C595        C596   1.369       .  A
C595        H607   1.082       .  S
C596        H608   1.082       .  S
C597        C598   1.375   1_455  A
C597        H609   1.077       .  S
C598        H610   1.082       .  S
C599        C600   1.380   1_455  A
C599        H611   1.081       .  S
C600        H612   1.081       .  S
C603       C1303   1.488       .  S
C604        C638   1.523       .  S
N615        C620   1.349       .  A
N615        C619   1.355       .  A
N615        H647   1.042       .  S
N616        C623   1.346   1_565  A
N616        C624   1.345       .  A
N617        C622   1.351       .  A
N617        C621   1.354       .  A
N617        H648   1.043   1_554  S
N618        C625   1.353   1_565  A
N618        C626   1.354       .  A
C619        C627   1.387   1_554  A
C619        C635   1.414       .  A
C620        C636   1.413       .  A
C620        C628   1.389   1_554  A
C621        C629   1.385       .  A
C621        C638   1.412       .  A
C622        C637   1.413       .  A
C622        C630   1.389       .  A
C623        C635   1.407       .  A
C623        C631   1.387       .  A
C624        C638   1.403       .  A
C624        C632   1.384       .  A
C625        C633   1.385       .  A
C625        C636   1.417       .  A
C626        C634   1.387       .  A
C626        C637   1.419       .  A
C627        C628   1.373       .  A
C627        H639   1.082       .  S
C628        H640   1.082       .  S
C629        C630   1.373       .  A
C629        H641   1.082       .  S
C630        H642   1.083       .  S
C631        C632   1.374   1_545  A
C631        H643   1.082       .  S
C632        H644   1.082       .  S
C633        C634   1.378   1_545  A
C633        H645   1.081       .  S
C634        H646   1.080       .  S
C636       C1559   1.482       .  S
In649      O1299   2.255       .  S
In649      O1300   2.303       .  S
In649       O660   2.256       .  S
In649       O654   2.273       .  S
In649       O656   2.257       .  S
In649      O1305   2.295       .  S
In649      O1306   2.279       .  S
In649       O661   2.236       .  S
C650        O658   1.262       .  A
O651        C659   1.261       .  A
O652        C659   1.259       .  A
C653        O660   1.260       .  A
C653        O654   1.260       .  A
C653        C684   1.494       .  S
C655       O1305   1.260       .  A
C655        O661   1.259       .  A
C655       C1899   1.495       .  S
O656       C1298   1.260       .  A
C659        C683   1.501       .  S
N662        C667   1.352       .  A
N662        C666   1.355       .  A
N662        H694   1.043       .  S
N663        C670   1.342       .  A
N663        C671   1.344       .  A
N664        C669   1.352       .  A
N664        C668   1.357       .  A
N664        H695   1.042       .  S
N665        C672   1.357       .  A
N665        C673   1.355       .  A
C666        C674   1.387       .  A
C666        C682   1.419       .  A
C667        C683   1.414       .  A
C667        C675   1.386       .  A
C668        C676   1.383       .  A
C668        C685   1.419       .  A
C669        C684   1.421       .  A
C669        C677   1.391       .  A
C670        C682   1.402       .  A
C670        C678   1.387       .  A
C671        C685   1.404       .  A
C671        C679   1.386       .  A
C672        C680   1.386       .  A
C672        C683   1.423       .  A
C673        C681   1.389       .  A
C673        C684   1.426       .  A
C674        C675   1.378       .  A
C674        H686   1.082       .  S
C675        H687   1.081       .  S
C676        C677   1.377       .  A
C676        H688   1.082       .  S
C677        H689   1.078       .  S
C678        C679   1.376       .  A
C678        H690   1.082       .  S
C679        H691   1.082       .  S
C680        C681   1.384       .  A
C680        H692   1.081       .  S
C681        H693   1.081       .  S
C682        C766   1.498       .  S
C685        C765   1.501       .  S
In696       O707   2.289       .  S
In696       O701   2.239       .  S
In696       O703   2.270       .  S
In696       O708   2.219       .  S
C697       O1351   1.258       .  A
C697        O705   1.258       .  A
C697       C1554   1.473       .  S
O698      In1344   2.244       .  S
O698        C706   1.259       .  A
O699      In1344   2.292       .  S
O699        C706   1.262       .  A
C700        O707   1.261       .  A
C700        O701   1.260       .  A
C700        C730   1.494       .  S
C702        O708   1.260       .  A
C702       C1215   1.500       .  S
O704      In1344   2.274       .  S
O704       C1350   1.263       .  A
O705      In1344   2.263       .  S
C706        C731   1.491       .  S
N709        C714   1.352       .  A
N709        C713   1.359       .  A
N709        H741   1.043       .  S
N710        C717   1.344       .  A
N710        C718   1.342       .  A
N711        C716   1.352       .  A
N711        C715   1.356       .  A
N711        H742   1.042       .  S
N712        C719   1.354       .  A
N712        C720   1.354       .  A
C713        C721   1.386       .  A
C713        C729   1.421       .  A
C714        C730   1.416       .  A
C714        C722   1.386       .  A
C715        C723   1.388       .  A
C715        C732   1.421       .  A
C716        C731   1.414       .  A
C716        C724   1.385       .  A
C717        C729   1.405       .  A
C717        C725   1.386       .  A
C718        C732   1.406       .  A
C718        C726   1.388       .  A
C719        C727   1.388       .  A
C719        C730   1.420       .  A
C720        C728   1.385       .  A
C720        C731   1.416       .  A
C721        C722   1.377       .  A
C721        H733   1.081       .  S
C722        H734   1.081       .  S
C723        C724   1.377       .  A
C723        H735   1.081       .  S
C724        H736   1.081       .  S
C725        C726   1.376       .  A
C725        H737   1.082       .  S
C726        H738   1.082       .  S
C727        C728   1.382       .  A
C727        H739   1.081       .  S
C728        H740   1.082       .  S
C729        C763   1.506       .  S
C732        C764   1.498       .  S
N743        C747   1.349       .  A
N743        H775   1.043       .  S
N744        C751   1.351       .  A
N744        C752   1.349       .  A
N745        C749   1.346       .  A
N745        H776   1.043       .  S
N746        C753   1.348       .  A
N746        C754   1.349       .  A
C747        C755   1.387       .  A
C747        C763   1.411       .  A
C748       N1391   1.347       .  A
C748        C764   1.411       .  A
C748        C756   1.388       .  A
C749        C757   1.388       .  A
C749        C766   1.409       .  A
C750       N1393   1.349       .  A
C750        C765   1.411       .  A
C750        C758   1.387       .  A
C751        C763   1.418       .  A
C751        C759   1.386       .  A
C752        C766   1.418       .  A
C752        C760   1.387       .  A
C753        C761   1.387       .  A
C753        C764   1.416       .  A
C754        C762   1.386       .  A
C754        C765   1.415       .  A
C755        H767   1.082       .  S
C756       C1403   1.381       .  A
C756        H768   1.082       .  S
C757        H769   1.082       .  S
C758       C1405   1.381       .  A
C758        H770   1.082       .  S
C759        C760   1.380       .  A
C759        H771   1.081       .  S
C760        H772   1.081       .  S
C761        C762   1.380       .  A
C761        H773   1.081       .  S
C762        H774   1.081       .  S
In777       O788   2.236       .  S
In777       O782   2.284       .  S
In777       O784   2.267       .  S
In777       O789   2.284       .  S
C778       O1432   1.261       .  A
C778        O786   1.261       .  A
C778       C1298   1.478       .  S
O779      In1425   2.265       .  S
O779        C787   1.260       .  A
O780      In1425   2.288       .  S
O780        C787   1.261       .  A
C781        O788   1.262       .  A
C781        O782   1.261       .  A
C781        C811   1.498       .  S
C783        O789   1.258       .  A
C783       C1285   1.490       .  S
O785      In1425   2.234       .  S
O785       C1431   1.258       .  A
O786      In1425   2.263       .  S
C787        C812   1.496       .  S
N790        C795   1.352       .  A
N790        C794   1.355       .  A
N790        H822   1.043       .  S
N791        C798   1.342       .  A
N791        C799   1.341       .  A
N792        C797   1.355       .  A
N792        C796   1.355       .  A
N792        H823   1.041       .  S
N793        C800   1.355       .  A
N793        C801   1.356       .  A
C794        C802   1.382       .  A
C794        C810   1.411       .  A
C795        C811   1.416       .  A
C795        C803   1.388       .  A
C796        C804   1.384       .  A
C796        C813   1.421       .  A
C797        C812   1.420       .  A
C797        C805   1.388       .  A
C798        C810   1.397       .  A
C798        C806   1.386       .  A
C799        C813   1.397       .  A
C799        C807   1.386       .  A
C800        C808   1.387       .  A
C800        C811   1.422       .  A
C801        C809   1.385       .  A
C801        C812   1.421       .  A
C802        C803   1.372       .  A
C802        H814   1.081       .  S
C803        H815   1.081       .  S
C804        C805   1.375       .  A
C804        H816   1.081       .  S
C805        H817   1.079       .  S
C806        C807   1.368       .  A
C806        H818   1.082       .  S
C807        H819   1.082       .  S
C808        C809   1.382       .  A
C808        H820   1.081       .  S
C809        H821   1.082       .  S
C810        C893   1.516       .  S
C813        C894   1.518       .  S
In824      O1474   2.277       .  S
In824      O1475   2.287       .  S
In824       O835   2.258       .  S
In824       O829   2.278       .  S
In824       O831   2.266       .  S
In824      O1480   2.263       .  S
In824      O1481   2.255       .  S
In824       O836   2.257       .  S
C825        O833   1.259       .  A
O826        C834   1.262       .  A
O827        C834   1.261       .  A
C828        O835   1.265       .  A
C828        O829   1.257       .  A
C828        C859   1.495       .  S
C830       O1480   1.259       .  A
C830        O836   1.257       .  A
C830       C1829   1.483       .  S
O831       C1473   1.258       .  A
C834        C858   1.500       .  S
N837        C842   1.353       .  A
N837        C841   1.352       .  A
N837        H869   1.041       .  S
N838        C845   1.339       .  A
N838        C846   1.341       .  A
N839        C844   1.350       .  A
N839        C843   1.356       .  A
N839        H870   1.042       .  S
N840        C847   1.359       .  A
N840        C848   1.357       .  A
C841        C849   1.382       .  A
C841        C857   1.412       .  A
C842        C858   1.415       .  A
C842        C850   1.387       .  A
C843        C851   1.384       .  A
C843        C860   1.416       .  A
C844        C859   1.411       .  A
C844        C852   1.386       .  A
C845        C857   1.393       .  A
C845        C853   1.386       .  A
C846        C860   1.394       .  A
C846        C854   1.386       .  A
C847        C855   1.385       .  A
C847        C858   1.426       .  A
C848        C856   1.387       .  A
C848        C859   1.426       .  A
C849        C850   1.372       .  A
C849        H861   1.080       .  S
C850        H862   1.077       .  S
C851        C852   1.371       .  A
C851        H863   1.081       .  S
C852        H864   1.081       .  S
C853        C854   1.367       .  A
C853        H865   1.082       .  S
C854        H866   1.082       .  S
C855        C856   1.384       .  A
C855        H867   1.082       .  S
C856        H868   1.082       .  S
C857        C892   1.511       .  S
C860        C891   1.517       .  S
N871        C876   1.342       .  A
N871        H903   1.044       .  S
N872        C879   1.353       .  A
N872        C880   1.352       .  A
N873        C878   1.347       .  A
N873        H904   1.044       .  S
N874        C881   1.348       .  A
N874        C882   1.350       .  A
C875       N1519   1.343       .  A
C875        C883   1.387       .  A
C875        C891   1.396       .  A
C876        C892   1.393       .  A
C876        C884   1.385       .  A
C877       N1521   1.344       .  A
C877        C885   1.386       .  A
C877        C894   1.393       .  A
C878        C893   1.398       .  A
C878        C886   1.385       .  A
C879        C891   1.411       .  A
C879        C887   1.383       .  A
C880        C894   1.412       .  A
C880        C888   1.384       .  A
C881        C889   1.383       .  A
C881        C892   1.407       .  A
C882        C890   1.385       .  A
C882        C893   1.409       .  A
C883       C1532   1.370       .  A
C883        H895   1.082       .  S
C884        H896   1.082       .  S
C885       C1534   1.368       .  A
C885        H897   1.082       .  S
C886        H898   1.082       .  S
C887        C888   1.371       .  A
C887        H899   1.080       .  S
C888        H900   1.080       .  S
C889        C890   1.370       .  A
C889        H901   1.080       .  S
C890        H902   1.080       .  S
In905      O1555   2.263       .  S
In905      O1556   2.284       .  S
In905       O916   2.258       .  S
In905       O910   2.295       .  S
In905       O912   2.256       .  S
In905      O1561   2.237       .  S
In905      O1562   2.266       .  S
In905       O917   2.279       .  S
C906        O914   1.259       .  A
O907        C915   1.264       .  A
O908        C915   1.264       .  A
C909        O916   1.260       .  A
C909        O910   1.258       .  A
C909        C940   1.496       .  S
C911       O1561   1.258       .  A
C911        O917   1.259       .  A
C911       C1932   1.485       .  S
O912       C1554   1.260       .  A
C915        C939   1.505       .  S
N918        C923   1.358       .  A
N918        C922   1.357       .  A
N918        H950   1.042       .  S
N919        C926   1.343       .  A
N919        C927   1.345       .  A
N920        C925   1.353       .  A
N920        C924   1.359       .  A
N920        H951   1.041       .  S
N921        C928   1.358       .  A
N921        C929   1.357       .  A
C922        C930   1.381       .  A
C922        C938   1.418       .  A
C923        C939   1.422       .  A
C923        C931   1.387       .  A
C924        C932   1.386       .  A
C924        C941   1.423       .  A
C925        C940   1.415       .  A
C925        C933   1.383       .  A
C926        C938   1.396       .  A
C926        C934   1.385       .  A
C927        C941   1.400       .  A
C927        C935   1.386       .  A
C928        C936   1.387       .  A
C928        C939   1.424       .  A
C929        C937   1.386       .  A
C929        C940   1.423       .  A
C930        C931   1.371       .  A
C930        H942   1.080       .  S
C931        H943   1.075       .  S
C932        C933   1.373       .  A
C932        H944   1.080       .  S
C933        H945   1.080       .  S
C934        C935   1.366       .  A
C934        H946   1.082       .  S
C935        H947   1.082       .  S
C936        C937   1.382       .  A
C936        H948   1.082       .  S
C937        H949   1.082       .  S
C938       C1021   1.524       .  S
C941       C1022   1.528       .  S
In952       O963   2.252       .  S
In952       O957   2.295       .  S
In952       O959   2.261       .  S
In952       O964   2.254       .  S
C953       O1607   1.259       .  A
C953        O961   1.259       .  A
C953       C1729   1.477       .  S
O954      In1600   2.262       .  S
O954        C962   1.259       .  A
O955      In1600   2.301       .  S
O955        C962   1.261       .  A
C956        O963   1.260       .  A
C956        O957   1.261       .  A
C956        C986   1.506       .  S
C958        O964   1.258       .  A
C958       C1184   1.504       .  S
O960      In1600   2.287       .  S
O960       C1606   1.263       .  A
O961      In1600   2.277       .  S
C962        C987   1.504       .  S
N965        C970   1.355       .  A
N965        C969   1.355       .  A
N965        H997   1.043       .  S
N966        C973   1.343       .  A
N966        C974   1.343       .  A
N967        C972   1.357       .  A
N967        C971   1.360       .  A
N967        H998   1.041       .  S
N968        C975   1.357       .  A
N968        C976   1.357       .  A
C969        C977   1.382       .  A
C969        C985   1.413       .  A
C970        C986   1.418       .  A
C970        C978   1.386       .  A
C971        C979   1.383       .  A
C971        C988   1.425       .  A
C972        C987   1.426       .  A
C972        C980   1.390       .  A
C973        C985   1.397       .  A
C973        C981   1.386       .  A
C974        C988   1.399       .  A
C974        C982   1.386       .  A
C975        C983   1.386       .  A
C975        C986   1.422       .  A
C976        C984   1.387       .  A
C976        C987   1.425       .  A
C977        C978   1.373       .  A
C977        H989   1.080       .  S
C978        H990   1.079       .  S
C979        C980   1.375       .  A
C979        H991   1.081       .  S
C980        H992   1.078       .  S
C981        C982   1.368       .  A
C981        H993   1.082       .  S
C982        H994   1.082       .  S
C983        C984   1.381       .  A
C983        H995   1.081       .  S
C984        H996   1.082       .  S
C985       C1020   1.519       .  S
C988       C1019   1.528       .  S
N999       C1004   1.346       .  A
N999       H1031   1.044       .  S
N1000      C1007   1.356       .  A
N1000      C1008   1.356       .  A
N1001      C1006   1.347       .  A
N1001      H1032   1.044       .  S
N1002      C1009   1.351       .  A
N1002      C1010   1.352       .  A
C1003      N1647   1.346       .  A
C1003      C1011   1.385       .  A
C1003      C1019   1.394       .  A
C1004      C1020   1.398       .  A
C1004      C1012   1.385       .  A
C1005      N1649   1.346       .  A
C1005      C1013   1.386       .  A
C1005      C1022   1.396       .  A
C1006      C1021   1.399       .  A
C1006      C1014   1.385       .  A
C1007      C1019   1.419       .  A
C1007      C1015   1.384       .  A
C1008      C1022   1.418       .  A
C1008      C1016   1.383       .  A
C1009      C1017   1.384       .  A
C1009      C1020   1.415       .  A
C1010      C1018   1.385       .  A
C1010      C1021   1.417       .  A
C1011      C1660   1.368       .  A
C1011      H1023   1.082       .  S
C1012      H1024   1.082       .  S
C1013      C1662   1.370       .  A
C1013      H1025   1.082       .  S
C1014      H1026   1.082       .  S
C1015      C1016   1.370       .  A
C1015      H1027   1.080       .  S
C1016      H1028   1.080       .  S
C1017      C1018   1.373       .  A
C1017      H1029   1.081       .  S
C1018      H1030   1.080       .  S
In1033     O1044   2.258       .  S
In1033     O1038   2.286       .  S
In1033     O1040   2.245       .  S
In1033     O1045   2.249       .  S
C1034      O1688   1.259       .  A
C1034      O1042   1.261       .  A
C1034      C1473   1.469       .  S
O1035     In1681   2.247       .  S
O1035      C1043   1.259       .  A
O1036     In1681   2.298       .  S
O1036      C1043   1.259       .  A
C1037      O1044   1.258       .  A
C1037      O1038   1.260       .  A
C1037      C1068   1.497       .  S
C1039      O1045   1.259       .  A
C1039      C1250   1.498       .  S
O1041     In1681   2.269       .  S
O1041      C1687   1.261       .  A
O1042     In1681   2.265       .  S
C1043      C1067   1.496       .  S
N1046      C1051   1.352       .  A
N1046      C1050   1.357       .  A
N1046      H1078   1.042       .  S
N1047      C1054   1.346       .  A
N1047      C1055   1.346       .  A
N1048      C1053   1.354       .  A
N1048      C1052   1.357       .  A
N1048      H1079   1.043       .  S
N1049      C1056   1.356       .  A
N1049      C1057   1.356       .  A
C1050      C1058   1.388       .  A
C1050      C1066   1.422       .  A
C1051      C1067   1.415       .  A
C1051      C1059   1.386       .  A
C1052      C1060   1.384       .  A
C1052      C1069   1.420       .  A
C1053      C1068   1.420       .  A
C1053      C1061   1.389       .  A
C1054      C1066   1.408       .  A
C1054      C1062   1.387       .  A
C1055      C1069   1.408       .  A
C1055      C1063   1.387       .  A
C1056      C1064   1.387       .  A
C1056      C1067   1.422       .  A
C1057      C1065   1.387       .  A
C1057      C1068   1.422       .  A
C1058      C1059   1.377       .  A
C1058      H1070   1.081       .  S
C1059      H1071   1.081       .  S
C1060      C1061   1.375       .  A
C1060      H1072   1.081       .  S
C1061      H1073   1.078       .  S
C1062      C1063   1.376       .  A
C1062      H1074   1.082       .  S
C1063      H1075   1.082       .  S
C1064      C1065   1.382       .  A
C1064      H1076   1.081       .  S
C1065      H1077   1.082       .  S
C1066      C1147   1.505       .  S
C1069      C1148   1.506       .  S
In1080     O1730   2.255       .  S
In1080     O1731   2.303       .  S
In1080     O1091   2.272       .  S
In1080     O1085   2.268       .  S
In1080     O1087   2.280       .  S
In1080     O1736   2.276       .  S
In1080     O1737   2.266       .  S
In1080     O1092   2.238       .  S
C1081      O1089   1.261       .  A
O1082      C1090   1.261       .  A
O1083      C1090   1.260       .  A
C1084      O1091   1.265       .  A
C1084      O1085   1.263       .  A
C1084      C1114   1.497       .  S
C1086      O1736   1.263       .  A
C1086      O1092   1.257       .  A
C1086      C1866   1.496       .  S
O1087      C1729   1.260       .  A
C1090      C1115   1.504       .  S
N1093      C1098   1.354       .  A
N1093      C1097   1.355       .  A
N1093      H1125   1.042       .  S
N1094      C1101   1.344       .  A
N1094      C1102   1.346       .  A
N1095      C1100   1.353       .  A
N1095      C1099   1.359       .  A
N1095      H1126   1.042       .  S
N1096      C1103   1.357       .  A
N1096      C1104   1.358       .  A
C1097      C1105   1.387       .  A
C1097      C1113   1.422       .  A
C1098      C1114   1.417       .  A
C1098      C1106   1.387       .  A
C1099      C1107   1.387       .  A
C1099      C1116   1.423       .  A
C1100      C1115   1.417       .  A
C1100      C1108   1.386       .  A
C1101      C1113   1.408       .  A
C1101      C1109   1.388       .  A
C1102      C1116   1.409       .  A
C1102      C1110   1.387       .  A
C1103      C1111   1.386       .  A
C1103      C1114   1.424       .  A
C1104      C1112   1.387       .  A
C1104      C1115   1.427       .  A
C1105      C1106   1.378       .  A
C1105      H1117   1.081       .  S
C1106      H1118   1.080       .  S
C1107      C1108   1.377       .  A
C1107      H1119   1.081       .  S
C1108      H1120   1.081       .  S
C1109      C1110   1.378       .  A
C1109      H1121   1.082       .  S
C1110      H1122   1.082       .  S
C1111      C1112   1.385       .  A
C1111      H1123   1.082       .  S
C1112      H1124   1.082       .  S
C1113      C1150   1.501       .  S
C1116      C1149   1.508       .  S
N1127      C1132   1.350       .  A
N1127      H1159   1.042       .  S
N1128      C1135   1.350       .  A
N1128      C1136   1.350       .  A
N1129      C1134   1.350       .  A
N1129      H1160   1.043       .  S
N1130      C1137   1.351       .  A
N1130      C1138   1.351       .  A
C1131      N1775   1.349       .  A
C1131      C1139   1.387       .  A
C1131      C1147   1.412       .  A
C1132      C1148   1.413       .  A
C1132      C1140   1.387       .  A
C1133      N1777   1.348       .  A
C1133      C1141   1.387       .  A
C1133      C1150   1.409       .  A
C1134      C1149   1.413       .  A
C1134      C1142   1.387       .  A
C1135      C1147   1.418       .  A
C1135      C1143   1.386       .  A
C1136      C1150   1.416       .  A
C1136      C1144   1.386       .  A
C1137      C1145   1.386       .  A
C1137      C1148   1.417       .  A
C1138      C1146   1.385       .  A
C1138      C1149   1.417       .  A
C1139      C1788   1.379       .  A
C1139      H1151   1.082       .  S
C1140      H1152   1.082       .  S
C1141      C1790   1.379       .  A
C1141      H1153   1.082       .  S
C1142      H1154   1.082       .  S
C1143      C1144   1.379       .  A
C1143      H1155   1.081       .  S
C1144      H1156   1.081       .  S
C1145      C1146   1.380       .  A
C1145      H1157   1.081       .  S
C1146      H1158   1.081       .  S
N1161      C1166   1.354       .  A
N1161      C1165   1.351       .  A
N1161      H1193   1.037       .  S
N1162      C1169   1.353       .  A
N1162      C1170   1.357   1_565  A
N1163      C1168   1.354       .  A
N1163      C1167   1.350       .  A
N1163      H1194   1.042       .  S
N1164      C1171   1.349       .  A
N1164      C1172   1.354   1_565  A
C1165      C1173   1.396       .  A
C1165      C1181   1.426       .  A
C1166      C1182   1.412       .  A
C1166      C1174   1.381       .  A
C1167      C1175   1.389       .  A
C1167      C1184   1.416       .  A
C1168      C1183   1.413       .  A
C1168      C1176   1.386       .  A
C1169      C1181   1.423       .  A
C1169      C1177   1.385       .  A
C1170      C1184   1.426       .  A
C1170      C1178   1.389       .  A
C1171      C1179   1.387       .  A
C1171      C1182   1.403       .  A
C1172      C1180   1.380       .  A
C1172      C1183   1.395       .  A
C1173      C1174   1.376       .  A
C1173      H1185   1.080       .  S
C1174      H1186   1.082       .  S
C1175      C1176   1.379       .  A
C1175      H1187   1.082       .  S
C1176      H1188   1.082       .  S
C1177      C1178   1.378   1_565  A
C1177      H1189   1.082       .  S
C1178      H1190   1.079       .  S
C1179      C1180   1.376   1_565  A
C1179      H1191   1.082       .  S
C1180      H1192   1.082       .  S
C1182      C1249   1.530       .  S
C1183      C1217   1.515       .  S
N1195      C1200   1.352       .  A
N1195      C1199   1.348       .  A
N1195      H1227   1.044       .  S
N1196      C1203   1.356   1_455  A
N1196      C1204   1.351       .  A
N1197      C1202   1.362       .  A
N1197      C1201   1.355       .  A
N1197      H1228   1.038       .  S
N1198      C1205   1.345   1_455  A
N1198      C1206   1.345       .  A
C1199      C1207   1.388       .  A
C1199      C1215   1.410       .  A
C1200      C1216   1.406       .  A
C1200      C1208   1.384       .  A
C1201      C1209   1.390       .  A
C1201      C1218   1.425       .  A
C1202      C1217   1.425       .  A
C1202      C1210   1.385       .  A
C1203      C1215   1.419       .  A
C1203      C1211   1.385       .  A
C1204      C1218   1.422       .  A
C1204      C1212   1.388       .  A
C1205      C1213   1.381       .  A
C1205      C1216   1.405       .  A
C1206      C1214   1.391       .  A
C1206      C1217   1.413       .  A
C1207      C1208   1.374       .  A
C1207      H1219   1.082       .  S
C1208      H1220   1.082       .  S
C1209      C1210   1.373       .  A
C1209      H1221   1.082       .  S
C1210      H1222   1.082       .  S
C1211      C1212   1.379   1_655  A
C1211      H1223   1.080       .  S
C1212      H1224   1.081       .  S
C1213      C1214   1.369   1_655  A
C1213      H1225   1.082       .  S
C1214      H1226   1.075       .  S
C1216      C1283   1.499       .  S
N1229      C1234   1.356       .  A
N1229      C1233   1.361       .  A
N1229      H1261   1.044       .  S
N1230      C1237   1.353       .  A
N1230      C1238   1.346   1_455  A
N1231      C1236   1.353       .  A
N1231      C1235   1.350       .  A
N1231      H1262   1.044       .  S
N1232      C1239   1.351       .  A
N1232      C1240   1.354   1_455  A
C1233      C1241   1.385       .  A
C1233      C1249   1.425       .  A
C1234      C1250   1.421       .  A
C1234      C1242   1.387       .  A
C1235      C1243   1.385       .  A
C1235      C1252   1.405       .  A
C1236      C1251   1.409       .  A
C1236      C1244   1.388       .  A
C1237      C1249   1.419       .  A
C1237      C1245   1.390       .  A
C1238      C1252   1.407       .  A
C1238      C1246   1.382       .  A
C1239      C1247   1.391       .  A
C1239      C1250   1.421       .  A
C1240      C1248   1.382       .  A
C1240      C1251   1.414       .  A
C1241      C1242   1.376       .  A
C1241      H1253   1.082       .  S
C1242      H1254   1.082       .  S
C1243      C1244   1.369       .  A
C1243      H1255   1.082       .  S
C1244      H1256   1.082       .  S
C1245      C1246   1.375   1_455  A
C1245      H1257   1.077       .  S
C1246      H1258   1.082       .  S
C1247      C1248   1.378   1_455  A
C1247      H1259   1.078       .  S
C1248      H1260   1.081       .  S
C1252      C1286   1.517       .  S
N1263      C1268   1.352       .  A
N1263      C1267   1.356       .  A
N1263      H1295   1.043       .  S
N1264      C1271   1.344   1_565  A
N1264      C1272   1.343       .  A
N1265      C1270   1.352       .  A
N1265      C1269   1.354       .  A
N1265      H1296   1.044       .  S
N1266      C1273   1.353   1_565  A
N1266      C1274   1.353       .  A
C1267      C1275   1.386       .  A
C1267      C1283   1.415       .  A
C1268      C1284   1.414       .  A
C1268      C1276   1.388       .  A
C1269      C1277   1.384       .  A
C1269      C1286   1.409       .  A
C1270      C1285   1.410       .  A
C1270      C1278   1.387       .  A
C1271      C1283   1.407       .  A
C1271      C1279   1.389       .  A
C1272      C1286   1.403       .  A
C1272      C1280   1.386       .  A
C1273      C1281   1.387       .  A
C1273      C1284   1.418       .  A
C1274      C1282   1.385       .  A
C1274      C1285   1.416       .  A
C1275      C1276   1.372       .  A
C1275      H1287   1.082       .  S
C1276      H1288   1.083       .  S
C1277      C1278   1.370       .  A
C1277      H1289   1.082       .  S
C1278      H1290   1.083       .  S
C1279      C1280   1.374   1_545  A
C1279      H1291   1.082       .  S
C1280      H1292   1.082       .  S
C1281      C1282   1.376   1_545  A
C1281      H1293   1.080       .  S
C1282      H1294   1.080       .  S
In1297     O1308   2.260   1_554  S
In1297     O1302   2.275   1_554  S
In1297     O1304   2.262   1_554  S
In1297     O1309   2.241       .  S
C1298      O1306   1.263       .  A
O1299      C1307   1.259       .  A
O1300      C1307   1.261       .  A
C1301      O1308   1.261       .  A
C1301      O1302   1.261       .  A
C1301      C1332   1.495       .  S
C1303      O1309   1.260       .  A
C1307      C1331   1.498       .  S
N1310      C1315   1.352       .  A
N1310      C1314   1.357       .  A
N1310      H1342   1.043       .  S
N1311      C1318   1.346       .  A
N1311      C1319   1.346       .  A
N1312      C1317   1.353       .  A
N1312      C1316   1.356       .  A
N1312      H1343   1.043       .  S
N1313      C1320   1.356       .  A
N1313      C1321   1.356       .  A
C1314      C1322   1.386       .  A
C1314      C1330   1.420       .  A
C1315      C1331   1.416       .  A
C1315      C1323   1.386       .  A
C1316      C1324   1.385       .  A
C1316      C1333   1.420       .  A
C1317      C1332   1.419       .  A
C1317      C1325   1.388       .  A
C1318      C1330   1.407       .  A
C1318      C1326   1.386       .  A
C1319      C1333   1.407       .  A
C1319      C1327   1.387       .  A
C1320      C1328   1.386       .  A
C1320      C1331   1.422       .  A
C1321      C1329   1.387       .  A
C1321      C1332   1.422       .  A
C1322      C1323   1.378       .  A
C1322      H1334   1.081       .  S
C1323      H1335   1.081       .  S
C1324      C1325   1.379       .  A
C1324      H1336   1.081       .  S
C1325      H1337   1.078       .  S
C1326      C1327   1.376       .  A
C1326      H1338   1.082       .  S
C1327      H1339   1.082       .  S
C1328      C1329   1.383       .  A
C1328      H1340   1.082       .  S
C1329      H1341   1.082       .  S
C1330      C1414   1.506       .  S
C1333      C1413   1.503       .  S
In1344     O1355   2.291       .  S
In1344     O1349   2.248       .  S
In1344     O1351   2.274       .  S
In1344     O1356   2.217       .  S
C1345      O1353   1.258       .  A
O1346      C1354   1.259       .  A
O1347      C1354   1.263       .  A
C1348      O1355   1.260       .  A
C1348      O1349   1.259       .  A
C1348      C1378   1.497       .  S
C1350      O1356   1.259       .  A
C1350      C1863   1.498       .  S
C1354      C1379   1.491       .  S
N1357      C1362   1.351       .  A
N1357      C1361   1.357       .  A
N1357      H1389   1.043       .  S
N1358      C1365   1.344       .  A
N1358      C1366   1.343       .  A
N1359      C1364   1.352       .  A
N1359      C1363   1.357       .  A
N1359      H1390   1.042       .  S
N1360      C1367   1.355       .  A
N1360      C1368   1.354       .  A
C1361      C1369   1.386       .  A
C1361      C1377   1.420       .  A
C1362      C1378   1.416       .  A
C1362      C1370   1.387       .  A
C1363      C1371   1.388       .  A
C1363      C1380   1.423       .  A
C1364      C1379   1.414       .  A
C1364      C1372   1.385       .  A
C1365      C1377   1.405       .  A
C1365      C1373   1.387       .  A
C1366      C1380   1.407       .  A
C1366      C1374   1.388       .  A
C1367      C1375   1.388       .  A
C1367      C1378   1.422       .  A
C1368      C1376   1.385       .  A
C1368      C1379   1.418       .  A
C1369      C1370   1.379       .  A
C1369      H1381   1.081       .  S
C1370      H1382   1.081       .  S
C1371      C1372   1.378       .  A
C1371      H1383   1.081       .  S
C1372      H1384   1.081       .  S
C1373      C1374   1.377       .  A
C1373      H1385   1.082       .  S
C1374      H1386   1.082       .  S
C1375      C1376   1.383       .  A
C1375      H1387   1.081       .  S
C1376      H1388   1.082       .  S
C1377      C1411   1.503       .  S
C1380      C1412   1.502       .  S
N1391      C1395   1.348       .  A
N1391      H1423   1.043       .  S
N1392      C1399   1.351       .  A
N1392      C1400   1.351       .  A
N1393      C1397   1.348       .  A
N1393      H1424   1.043       .  S
N1394      C1401   1.350       .  A
N1394      C1402   1.350       .  A
C1395      C1403   1.387       .  A
C1395      C1411   1.410       .  A
C1396      C1412   1.409       .  A
C1396      C1404   1.387       .  A
C1397      C1405   1.388       .  A
C1397      C1414   1.413       .  A
C1398      C1413   1.411       .  A
C1398      C1406   1.387       .  A
C1399      C1411   1.417       .  A
C1399      C1407   1.385       .  A
C1400      C1414   1.419       .  A
C1400      C1408   1.386       .  A
C1401      C1409   1.386       .  A
C1401      C1412   1.416       .  A
C1402      C1410   1.386       .  A
C1402      C1413   1.417       .  A
C1403      H1415   1.082       .  S
C1404      H1416   1.082       .  S
C1405      H1417   1.082       .  S
C1406      H1418   1.082       .  S
C1407      C1408   1.380       .  A
C1407      H1419   1.081       .  S
C1408      H1420   1.081       .  S
C1409      C1410   1.380       .  A
C1409      H1421   1.081       .  S
C1410      H1422   1.081       .  S
In1425     O1436   2.249       .  S
In1425     O1430   2.278       .  S
In1425     O1432   2.273       .  S
In1425     O1437   2.288       .  S
C1426      O1434   1.260   1_554  A
O1427      C1435   1.260       .  A
O1428      C1435   1.260       .  A
C1429      O1436   1.263       .  A
C1429      O1430   1.260       .  A
C1429      C1459   1.504       .  S
C1431      O1437   1.258       .  A
C1431      C1933   1.492       .  S
C1435      C1460   1.500       .  S
N1438      C1443   1.352       .  A
N1438      C1442   1.356       .  A
N1438      H1470   1.043       .  S
N1439      C1446   1.343       .  A
N1439      C1447   1.342       .  A
N1440      C1445   1.354       .  A
N1440      C1444   1.352       .  A
N1440      H1471   1.042       .  S
N1441      C1448   1.357       .  A
N1441      C1449   1.358       .  A
C1442      C1450   1.385       .  A
C1442      C1458   1.416       .  A
C1443      C1459   1.415       .  A
C1443      C1451   1.387       .  A
C1444      C1452   1.383       .  A
C1444      C1461   1.413       .  A
C1445      C1460   1.417       .  A
C1445      C1453   1.389       .  A
C1446      C1458   1.396       .  A
C1446      C1454   1.386       .  A
C1447      C1461   1.394       .  A
C1447      C1455   1.385       .  A
C1448      C1456   1.389       .  A
C1448      C1459   1.428       .  A
C1449      C1457   1.383       .  A
C1449      C1460   1.423       .  A
C1450      C1451   1.373       .  A
C1450      H1462   1.081       .  S
C1451      H1463   1.081       .  S
C1452      C1453   1.375       .  A
C1452      H1464   1.081       .  S
C1453      H1465   1.079       .  S
C1454      C1455   1.366       .  A
C1454      H1466   1.082       .  S
C1455      H1467   1.082       .  S
C1456      C1457   1.381       .  A
C1456      H1468   1.079       .  S
C1457      H1469   1.082       .  S
C1458      C1541   1.517       .  S
C1461      C1542   1.517       .  S
In1472     O1483   2.259       .  S
In1472     O1477   2.281       .  S
In1472     O1479   2.271       .  S
In1472     O1484   2.247       .  S
C1473      O1481   1.258       .  A
O1474      C1482   1.263       .  A
O1475      C1482   1.261       .  A
C1476      O1483   1.263       .  A
C1476      O1477   1.259       .  A
C1476      C1507   1.492       .  S
C1478      O1484   1.258       .  A
C1482      C1506   1.501       .  S
N1485      C1490   1.355       .  A
N1485      C1489   1.353       .  A
N1485      H1517   1.042       .  S
N1486      C1493   1.343       .  A
N1486      C1494   1.345       .  A
N1487      C1492   1.352       .  A
N1487      C1491   1.358       .  A
N1487      H1518   1.042       .  S
N1488      C1495   1.359       .  A
N1488      C1496   1.356       .  A
C1489      C1497   1.385       .  A
C1489      C1505   1.417       .  A
C1490      C1506   1.414       .  A
C1490      C1498   1.386       .  A
C1491      C1499   1.383       .  A
C1491      C1508   1.418       .  A
C1492      C1507   1.414       .  A
C1492      C1500   1.385       .  A
C1493      C1505   1.400       .  A
C1493      C1501   1.386       .  A
C1494      C1508   1.399       .  A
C1494      C1502   1.385       .  A
C1495      C1503   1.386       .  A
C1495      C1506   1.425       .  A
C1496      C1504   1.387       .  A
C1496      C1507   1.423       .  A
C1497      C1498   1.372       .  A
C1497      H1509   1.081       .  S
C1498      H1510   1.078       .  S
C1499      C1500   1.373       .  A
C1499      H1511   1.079       .  S
C1500      H1512   1.079       .  S
C1501      C1502   1.367       .  A
C1501      H1513   1.082       .  S
C1502      H1514   1.082       .  S
C1503      C1504   1.384       .  A
C1503      H1515   1.082       .  S
C1504      H1516   1.082       .  S
C1505      C1540   1.517       .  S
C1508      C1539   1.526       .  S
N1519      C1524   1.343       .  A
N1519      H1551   1.044       .  S
N1520      C1527   1.353       .  A
N1520      C1528   1.350       .  A
N1521      C1526   1.345       .  A
N1521      H1552   1.044       .  S
N1522      C1529   1.350       .  A
N1522      C1530   1.350       .  A
C1523      C1531   1.386       .  A
C1523      C1539   1.401       .  A
C1524      C1540   1.393       .  A
C1524      C1532   1.385       .  A
C1525      C1533   1.387       .  A
C1525      C1542   1.403       .  A
C1526      C1541   1.392       .  A
C1526      C1534   1.384       .  A
C1527      C1539   1.417       .  A
C1527      C1535   1.385       .  A
C1528      C1542   1.417       .  A
C1528      C1536   1.386       .  A
C1529      C1537   1.383       .  A
C1529      C1540   1.408       .  A
C1530      C1538   1.385       .  A
C1530      C1541   1.410       .  A
C1531      H1543   1.082       .  S
C1532      H1544   1.082       .  S
C1533      H1545   1.082       .  S
C1534      H1546   1.082       .  S
C1535      C1536   1.373       .  A
C1535      H1547   1.081       .  S
C1536      H1548   1.081       .  S
C1537      C1538   1.371       .  A
C1537      H1549   1.081       .  S
C1538      H1550   1.081       .  S
In1553     O1564   2.257   1_554  S
In1553     O1558   2.298   1_554  S
In1553     O1560   2.271       .  S
In1553     O1565   2.274   1_554  S
C1554      O1562   1.261       .  A
O1555      C1563   1.262       .  A
O1556      C1563   1.262       .  A
C1557      O1564   1.261       .  A
C1557      O1558   1.260       .  A
C1557      C1588   1.496       .  S
C1559      O1565   1.259   1_554  A
C1563      C1587   1.501       .  S
N1566      C1571   1.356       .  A
N1566      C1570   1.356       .  A
N1566      H1598   1.041       .  S
N1567      C1574   1.342       .  A
N1567      C1575   1.342       .  A
N1568      C1573   1.353       .  A
N1568      C1572   1.355       .  A
N1568      H1599   1.042       .  S
N1569      C1576   1.357       .  A
N1569      C1577   1.357       .  A
C1570      C1578   1.382       .  A
C1570      C1586   1.420       .  A
C1571      C1587   1.422       .  A
C1571      C1579   1.388       .  A
C1572      C1580   1.383       .  A
C1572      C1589   1.413       .  A
C1573      C1588   1.414       .  A
C1573      C1581   1.387       .  A
C1574      C1586   1.400       .  A
C1574      C1582   1.387       .  A
C1575      C1589   1.398       .  A
C1575      C1583   1.386       .  A
C1576      C1584   1.388       .  A
C1576      C1587   1.426       .  A
C1577      C1585   1.385       .  A
C1577      C1588   1.423       .  A
C1578      C1579   1.374       .  A
C1578      H1590   1.081       .  S
C1579      H1591   1.076       .  S
C1580      C1581   1.372       .  A
C1580      H1592   1.081       .  S
C1581      H1593   1.081       .  S
C1582      C1583   1.369       .  A
C1582      H1594   1.082       .  S
C1583      H1595   1.082       .  S
C1584      C1585   1.383       .  A
C1584      H1596   1.082       .  S
C1585      H1597   1.082       .  S
C1586      C1669   1.522       .  S
C1589      C1670   1.518       .  S
In1600     O1611   2.257       .  S
In1600     O1605   2.306       .  S
In1600     O1607   2.269       .  S
In1600     O1612   2.240       .  S
C1601      O1609   1.260   1_554  A
O1602      C1610   1.262       .  A
O1603      C1610   1.263       .  A
C1604      O1611   1.259       .  A
C1604      O1605   1.259       .  A
C1604      C1634   1.502       .  S
C1606      O1612   1.262       .  A
C1606      C1832   1.491       .  S
C1610      C1635   1.499       .  S
N1613      C1618   1.354       .  A
N1613      C1617   1.358       .  A
N1613      H1645   1.041       .  S
N1614      C1621   1.341       .  A
N1614      C1622   1.341       .  A
N1615      C1620   1.355       .  A
N1615      C1619   1.354       .  A
N1615      H1646   1.043       .  S
N1616      C1623   1.357       .  A
N1616      C1624   1.357       .  A
C1617      C1625   1.385       .  A
C1617      C1633   1.421       .  A
C1618      C1634   1.420       .  A
C1618      C1626   1.388       .  A
C1619      C1627   1.381       .  A
C1619      C1636   1.412       .  A
C1620      C1635   1.419       .  A
C1620      C1628   1.389       .  A
C1621      C1633   1.399       .  A
C1621      C1629   1.387       .  A
C1622      C1636   1.396       .  A
C1622      C1630   1.386       .  A
C1623      C1631   1.387       .  A
C1623      C1634   1.425       .  A
C1624      C1632   1.386       .  A
C1624      C1635   1.423       .  A
C1625      C1626   1.374       .  A
C1625      H1637   1.081       .  S
C1626      H1638   1.081       .  S
C1627      C1628   1.371       .  A
C1627      H1639   1.081       .  S
C1628      H1640   1.076       .  S
C1629      C1630   1.369       .  A
C1629      H1641   1.082       .  S
C1630      H1642   1.082       .  S
C1631      C1632   1.383       .  A
C1631      H1643   1.082       .  S
C1632      H1644   1.082       .  S
C1633      C1668   1.523       .  S
C1636      C1667   1.517       .  S
N1647      C1652   1.347       .  A
N1647      H1679   1.045       .  S
N1648      C1655   1.351       .  A
N1648      C1656   1.351       .  A
N1649      C1654   1.345       .  A
N1649      H1680   1.044       .  S
N1650      C1657   1.354       .  A
N1650      C1658   1.354       .  A
C1651      C1659   1.386       .  A
C1651      C1667   1.398       .  A
C1652      C1668   1.396       .  A
C1652      C1660   1.386       .  A
C1653      C1661   1.386       .  A
C1653      C1670   1.397       .  A
C1654      C1669   1.395       .  A
C1654      C1662   1.386       .  A
C1655      C1667   1.412       .  A
C1655      C1663   1.384       .  A
C1656      C1670   1.412       .  A
C1656      C1664   1.383       .  A
C1657      C1665   1.384       .  A
C1657      C1668   1.415       .  A
C1658      C1666   1.383       .  A
C1658      C1669   1.412       .  A
C1659      H1671   1.082       .  S
C1660      H1672   1.082       .  S
C1661      H1673   1.082       .  S
C1662      H1674   1.082       .  S
C1663      C1664   1.371       .  A
C1663      H1675   1.080       .  S
C1664      H1676   1.080       .  S
C1665      C1666   1.370       .  A
C1665      H1677   1.080       .  S
C1666      H1678   1.080       .  S
In1681     O1692   2.262       .  S
In1681     O1686   2.276       .  S
In1681     O1688   2.250       .  S
In1681     O1693   2.238       .  S
C1682      O1690   1.260   1_554  A
O1683      C1691   1.258       .  A
O1684      C1691   1.260       .  A
C1685      O1692   1.261       .  A
C1685      O1686   1.262       .  A
C1685      C1716   1.498       .  S
C1687      O1693   1.258       .  A
C1687      C1898   1.484       .  S
C1691      C1715   1.497       .  S
N1694      C1699   1.352       .  A
N1694      C1698   1.359       .  A
N1694      H1726   1.043       .  S
N1695      C1702   1.345       .  A
N1695      C1703   1.344       .  A
N1696      C1701   1.354       .  A
N1696      C1700   1.356       .  A
N1696      H1727   1.043       .  S
N1697      C1704   1.356       .  A
N1697      C1705   1.357       .  A
C1698      C1706   1.385       .  A
C1698      C1714   1.421       .  A
C1699      C1715   1.416       .  A
C1699      C1707   1.384       .  A
C1700      C1708   1.386       .  A
C1700      C1717   1.423       .  A
C1701      C1716   1.420       .  A
C1701      C1709   1.388       .  A
C1702      C1714   1.403       .  A
C1702      C1710   1.386       .  A
C1703      C1717   1.406       .  A
C1703      C1711   1.387       .  A
C1704      C1712   1.386       .  A
C1704      C1715   1.422       .  A
C1705      C1713   1.387       .  A
C1705      C1716   1.422       .  A
C1706      C1707   1.377       .  A
C1706      H1718   1.080       .  S
C1707      H1719   1.080       .  S
C1708      C1709   1.379       .  A
C1708      H1720   1.082       .  S
C1709      H1721   1.079       .  S
C1710      C1711   1.376       .  A
C1710      H1722   1.082       .  S
C1711      H1723   1.082       .  S
C1712      C1713   1.382       .  A
C1712      H1724   1.082       .  S
C1713      H1725   1.082       .  S
C1714      C1795   1.505       .  S
C1717      C1796   1.504       .  S
In1728     O1739   2.280   1_554  S
In1728     O1733   2.260   1_554  S
In1728     O1735   2.275   1_554  S
In1728     O1740   2.235       .  S
C1729      O1737   1.256       .  A
O1730      C1738   1.257       .  A
O1731      C1738   1.258       .  A
C1732      O1739   1.259       .  A
C1732      O1733   1.261       .  A
C1732      C1762   1.501       .  S
C1734      O1740   1.258       .  A
C1738      C1763   1.502       .  S
N1741      C1746   1.351       .  A
N1741      C1745   1.356       .  A
N1741      H1773   1.043       .  S
N1742      C1749   1.344       .  A
N1742      C1750   1.343       .  A
N1743      C1748   1.351       .  A
N1743      C1747   1.356       .  A
N1743      H1774   1.043       .  S
N1744      C1751   1.356       .  A
N1744      C1752   1.356       .  A
C1745      C1753   1.386       .  A
C1745      C1761   1.418       .  A
C1746      C1762   1.415       .  A
C1746      C1754   1.386       .  A
C1747      C1755   1.386       .  A
C1747      C1764   1.420       .  A
C1748      C1763   1.416       .  A
C1748      C1756   1.388       .  A
C1749      C1761   1.406       .  A
C1749      C1757   1.387       .  A
C1750      C1764   1.404       .  A
C1750      C1758   1.387       .  A
C1751      C1759   1.387       .  A
C1751      C1762   1.424       .  A
C1752      C1760   1.387       .  A
C1752      C1763   1.424       .  A
C1753      C1754   1.378       .  A
C1753      H1765   1.081       .  S
C1754      H1766   1.080       .  S
C1755      C1756   1.379       .  A
C1755      H1767   1.082       .  S
C1756      H1768   1.082       .  S
C1757      C1758   1.377       .  A
C1757      H1769   1.082       .  S
C1758      H1770   1.082       .  S
C1759      C1760   1.382       .  A
C1759      H1771   1.081       .  S
C1760      H1772   1.081       .  S
C1761      C1798   1.500       .  S
C1764      C1797   1.500       .  S
N1775      C1780   1.349       .  A
N1775      H1807   1.043       .  S
N1776      C1783   1.351       .  A
N1776      C1784   1.349       .  A
N1777      C1782   1.348       .  A
N1777      H1808   1.043       .  S
N1778      C1785   1.351       .  A
N1778      C1786   1.351       .  A
C1779      C1787   1.386       .  A
C1779      C1795   1.408       .  A
C1780      C1796   1.411       .  A
C1780      C1788   1.387       .  A
C1781      C1789   1.388       .  A
C1781      C1798   1.413       .  A
C1782      C1797   1.408       .  A
C1782      C1790   1.387       .  A
C1783      C1795   1.417       .  A
C1783      C1791   1.385       .  A
C1784      C1798   1.417       .  A
C1784      C1792   1.386       .  A
C1785      C1793   1.386       .  A
C1785      C1796   1.419       .  A
C1786      C1794   1.385       .  A
C1786      C1797   1.417       .  A
C1787      H1799   1.082       .  S
C1788      H1800   1.082       .  S
C1789      H1801   1.082       .  S
C1790      H1802   1.082       .  S
C1791      C1792   1.381       .  A
C1791      H1803   1.081       .  S
C1792      H1804   1.081       .  S
C1793      C1794   1.379       .  A
C1793      H1805   1.080       .  S
C1794      H1806   1.081       .  S
N1809      C1814   1.351       .  A
N1809      C1813   1.350       .  A
N1809      H1841   1.038       .  S
N1810      C1817   1.352       .  A
N1810      C1818   1.352   1_565  A
N1811      C1816   1.359       .  A
N1811      C1815   1.352       .  A
N1811      H1842   1.042       .  S
N1812      C1819   1.349       .  A
N1812      C1820   1.355   1_565  A
C1813      C1821   1.396       .  A
C1813      C1829   1.426       .  A
C1814      C1830   1.414       .  A
C1814      C1822   1.381       .  A
C1815      C1823   1.387       .  A
C1815      C1832   1.416       .  A
C1816      C1831   1.423       .  A
C1816      C1824   1.387       .  A
C1817      C1829   1.424       .  A
C1817      C1825   1.388       .  A
C1818      C1832   1.419       .  A
C1818      C1826   1.386       .  A
C1819      C1827   1.387       .  A
C1819      C1830   1.406       .  A
C1820      C1828   1.381       .  A
C1820      C1831   1.393       .  A
C1821      C1822   1.380       .  A
C1821      H1833   1.080       .  S
C1822      H1834   1.082       .  S
C1823      C1824   1.377       .  A
C1823      H1835   1.082       .  S
C1824      H1836   1.082       .  S
C1825      C1826   1.382   1_565  A
C1825      H1837   1.082       .  S
C1826      H1838   1.081       .  S
C1827      C1828   1.372   1_565  A
C1827      H1839   1.082       .  S
C1828      H1840   1.083       .  S
C1830      C1897   1.530       .  S
C1831      C1865   1.522       .  S
N1843      C1848   1.353       .  A
N1843      C1847   1.348       .  A
N1843      H1875   1.044       .  S
N1844      C1851   1.355   1_455  A
N1844      C1852   1.351       .  A
N1845      C1850   1.360       .  A
N1845      C1849   1.359       .  A
N1845      H1876   1.037       .  S
N1846      C1853   1.350   1_455  A
N1846      C1854   1.349       .  A
C1847      C1855   1.389       .  A
C1847      C1863   1.414       .  A
C1848      C1864   1.409       .  A
C1848      C1856   1.385       .  A
C1849      C1857   1.392       .  A
C1849      C1866   1.430       .  A
C1850      C1865   1.425       .  A
C1850      C1858   1.383       .  A
C1851      C1863   1.421       .  A
C1851      C1859   1.387       .  A
C1852      C1866   1.420       .  A
C1852      C1860   1.386       .  A
C1853      C1861   1.382       .  A
C1853      C1864   1.412       .  A
C1854      C1862   1.390       .  A
C1854      C1865   1.419       .  A
C1855      C1856   1.376       .  A
C1855      H1867   1.082       .  S
C1856      H1868   1.082       .  S
C1857      C1858   1.368       .  A
C1857      H1869   1.077       .  S
C1858      H1870   1.082       .  S
C1859      C1860   1.377   1_655  A
C1859      H1871   1.079       .  S
C1860      H1872   1.082       .  S
C1861      C1862   1.373   1_655  A
C1861      H1873   1.082       .  S
C1862      H1874   1.077       .  S
C1864      C1931   1.507       .  S
N1877      C1882   1.353       .  A
N1877      C1881   1.358       .  A
N1877      H1909   1.044       .  S
N1878      C1885   1.357       .  A
N1878      C1886   1.349   1_455  A
N1879      C1884   1.356       .  A
N1879      C1883   1.353       .  A
N1879      H1910   1.043       .  S
N1880      C1887   1.349       .  A
N1880      C1888   1.353   1_455  A
C1881      C1889   1.386       .  A
C1881      C1897   1.422       .  A
C1882      C1898   1.419       .  A
C1882      C1890   1.388       .  A
C1883      C1891   1.386       .  A
C1883      C1900   1.413       .  A
C1884      C1899   1.415       .  A
C1884      C1892   1.387       .  A
C1885      C1897   1.423       .  A
C1885      C1893   1.389       .  A
C1886      C1900   1.412       .  A
C1886      C1894   1.382       .  A
C1887      C1895   1.389       .  A
C1887      C1898   1.417       .  A
C1888      C1896   1.385       .  A
C1888      C1899   1.415       .  A
C1889      C1890   1.377       .  A
C1889      H1901   1.082       .  S
C1890      H1902   1.082       .  S
C1891      C1892   1.370       .  A
C1891      H1903   1.082       .  S
C1892      H1904   1.082       .  S
C1893      C1894   1.374   1_455  A
C1893      H1905   1.077       .  S
C1894      H1906   1.082       .  S
C1895      C1896   1.379   1_455  A
C1895      H1907   1.081       .  S
C1896      H1908   1.081       .  S
C1900      C1934   1.527       .  S
N1911      C1916   1.353       .  A
N1911      C1915   1.358       .  A
N1911      H1943   1.043       .  S
N1912      C1919   1.346   1_565  A
N1912      C1920   1.346       .  A
N1913      C1918   1.353       .  A
N1913      C1917   1.357       .  A
N1913      H1944   1.043       .  S
N1914      C1921   1.352   1_565  A
N1914      C1922   1.353       .  A
C1915      C1923   1.386       .  A
C1915      C1931   1.419       .  A
C1916      C1932   1.415       .  A
C1916      C1924   1.387       .  A
C1917      C1925   1.385       .  A
C1917      C1934   1.415       .  A
C1918      C1933   1.415       .  A
C1918      C1926   1.388       .  A
C1919      C1931   1.407       .  A
C1919      C1927   1.387       .  A
C1920      C1934   1.408       .  A
C1920      C1928   1.386       .  A
C1921      C1929   1.386       .  A
C1921      C1932   1.415       .  A
C1922      C1930   1.388       .  A
C1922      C1933   1.417       .  A
C1923      C1924   1.371       .  A
C1923      H1935   1.082       .  S
C1924      H1936   1.082       .  S
C1925      C1926   1.371       .  A
C1925      H1937   1.082       .  S
C1926      H1938   1.083       .  S
C1927      C1928   1.373   1_545  A
C1927      H1939   1.082       .  S
C1928      H1940   1.082       .  S
C1929      C1930   1.378   1_545  A
C1929      H1941   1.081       .  S
C1930      H1942   1.080       .  S
