geometry optimzed in LAMMPS
_audit_creation_date              2020-11-30 
_audit_creation_method            'lammps2cif' 
_symmetry_space_group_name_H-M    'P1' 
_symmetry_Int_Tables_number       1 
_symmetry_cell_setting            triclinic 
loop_ 
_symmetry_equiv_pos_as_xyz 
  x,y,z 
_cell_length_a                    27.99927896 
_cell_length_b                    47.550748500073155 
_cell_length_c                    23.866591092572254 
_cell_angle_alpha                 90.00083027152587 
_cell_angle_beta                  89.99986484234913 
_cell_angle_gamma                 90.0001005040114 
loop_ 
_atom_site_label 
_atom_site_type_symbol 
_atom_site_fract_x 
_atom_site_fract_y 
_atom_site_fract_z 
_atom_site_charge 
Fe1        Fe  0.74095704  0.33253923  0.46891556     1.65800
Fe2        Fe  0.66202444  0.29258992  0.39321450     1.73200
Fe3        Fe  0.62036354  0.33719712  0.49541453     1.54400
O4          O  0.65421618  0.33336690  0.57229627    -0.80100
O5          O  0.60896944  0.31615844  0.35773185    -0.78400
O6          O  0.73240381  0.33030984  0.55460315    -0.82600
O7          O  0.72362753  0.37453066  0.46950151    -0.77500
O8          O  0.58745090  0.29861549  0.50881498    -0.79200
O9          O  0.70774960  0.31156481  0.33640211    -0.82000
C10         C  0.68590039  0.38869737  0.47701350     0.98800
C11         C  0.69743975  0.33207499  0.58812701     1.06200
O12         O  0.67444071  0.32062942  0.45291085    -1.11000
O13         O  0.71440371  0.26584016  0.42153879    -0.73400
O14         O  0.76650993  0.29174563  0.47014684    -0.76900
O15         O  0.64548022  0.37780127  0.48682466    -0.77600
C16         C  0.75224207  0.26852796  0.45010855     0.97700
O17         O  0.75847679  0.33776488  0.38562090    -0.75500
O18         O  0.61303100  0.27010388  0.44083606    -0.80700
C19         C  0.58073039  0.33508427  0.37451730     1.00300
C20         C  0.58698792  0.27520805  0.48318982     1.06200
O21         O  0.58003542  0.34435551  0.42425358    -0.76400
C22         C  0.74213618  0.32879953  0.33958440     1.04500
Fe23       Fe  0.27257989  0.33254219  0.07537194     1.65800
Fe24       Fe  0.35151916  0.29259929  0.15107345     1.73200
Fe25       Fe  0.39317162  0.33720098  0.04886200     1.54400
O26         O  0.35930849  0.33337334  0.97198579    -0.80100
O27         O  0.40457095  0.31617246  0.18655055    -0.78400
O28         O  0.28112379  0.33029977  0.98968503    -0.82600
O29         O  0.28990859  0.37453395  0.07476157    -0.77500
O30         O  0.42607614  0.29861768  0.03545278    -0.79200
O31         O  0.30579169  0.31157450  0.20788426    -0.82000
C32         C  0.32763661  0.38870129  0.06725992     0.98800
C33         C  0.31608488  0.33207143  0.95615844     1.06200
O34         O  0.33909786  0.32063488  0.09137325    -1.11000
O35         O  0.29914414  0.26584482  0.12275462    -0.73400
O36         O  0.24702490  0.29174858  0.07416460    -0.76900
O37         O  0.36805962  0.37780571  0.05746218    -0.77600
C38         C  0.26129901  0.26853137  0.09419726     0.97700
O39         O  0.25507174  0.33777938  0.15866659    -0.75500
O40         O  0.40051564  0.27011385  0.10345367    -0.80700
C41         C  0.43281692  0.33509213  0.16975489     1.00300
C42         C  0.42654801  0.27521368  0.06108902     1.06200
O43         O  0.43351318  0.34435697  0.12001446    -0.76400
C44         C  0.27141063  0.32881308  0.20470264     1.04500
Fe45       Fe  0.24094406  0.36982800  0.57537430     1.65800
Fe46       Fe  0.16199670  0.40976642  0.65107621     1.73200
Fe47       Fe  0.12035393  0.36516278  0.54886005     1.54400
O48         O  0.15421528  0.36899740  0.47198484    -0.80100
O49         O  0.10894592  0.38619047  0.68654771    -0.78400
O50         O  0.23239998  0.37206708  0.48968694    -0.82600
O51         O  0.22362291  0.32783560  0.57476734    -0.77500
O52         O  0.08743855  0.40374340  0.53545982    -0.79200
O53         O  0.20772344  0.39079242  0.70788802    -0.82000
C54         C  0.18589851  0.31366635  0.56725596     0.98800
C55         C  0.19743945  0.37029811  0.45615896     1.06200
O56         O  0.17442390  0.38173175  0.59137430    -1.11000
O57         O  0.21437062  0.43652320  0.62276285    -0.73400
O58         O  0.26649062  0.41062286  0.57416463    -0.76900
O59         O  0.14547545  0.32455973  0.55744976    -0.77600
C60         C  0.25221466  0.43383884  0.59420205     0.97700
O61         O  0.25845384  0.36459435  0.65866926    -0.75500
O62         O  0.11300009  0.43225055  0.60345588    -0.80700
C63         C  0.08070812  0.36726629  0.66975202     1.00300
C64         C  0.08696555  0.42714821  0.56109416     1.06200
O65         O  0.08001667  0.35799997  0.62001219    -0.76400
C66         C  0.24211014  0.37355780  0.70470572     1.04500
Fe67       Fe  0.77258538  0.36982552  0.96891563     1.65800
Fe68       Fe  0.85152532  0.40977024  0.89321771     1.73200
Fe69       Fe  0.89317763  0.36516105  0.99541698     1.54400
O70         O  0.85932816  0.36899925  0.07229885    -0.80100
O71         O  0.90458245  0.38620060  0.85773989    -0.78400
O72         O  0.78114012  0.37204994  0.05460395    -0.82600
O73         O  0.78990693  0.32783340  0.96949049    -0.77500
O74         O  0.92610248  0.40374027  0.00881006    -0.79200
O75         O  0.80580401  0.39079469  0.83640174    -0.82000
C76         C  0.82762989  0.31366462  0.97701317     0.98800
C77         C  0.81610403  0.37028847  0.08812872     1.06200
O78         O  0.83910383  0.38173165  0.95291281    -1.11000
O79         O  0.79914444  0.43652150  0.92153638    -0.73400
O80         O  0.74704124  0.41062049  0.97015711    -0.76900
O81         O  0.86804996  0.32455832  0.98683563    -0.77600
C82         C  0.76130888  0.43383647  0.95011251     0.97700
O83         O  0.75506238  0.36460473  0.88561999    -0.75500
O84         O  0.90051549  0.43225624  0.94084384    -0.80700
C85         C  0.93281209  0.36726932  0.87452176     1.00300
C86         C  0.92656329  0.42714924  0.98319156     1.06200
O87         O  0.93350021  0.35799483  0.92425502    -0.76400
C88         C  0.77140991  0.37356532  0.83958361     1.04500
Fe89       Fe  0.16230103  0.04271053  0.15095553     1.65800
Fe90       Fe  0.24100926  0.08258385  0.07478548     1.73200
Fe91       Fe  0.12032912  0.08721471  0.04877929     1.54400
O92         O  0.08768802  0.04857330  0.03522428    -0.80100
O93         O  0.22360937  0.12456901  0.07365346    -0.78400
O94         O  0.11302498  0.02024963  0.10365012    -0.82600
O95         O  0.10947909  0.06634754  0.18670863    -0.77500
O96         O  0.15412958  0.08358137  0.97180592    -0.79200
O97         O  0.25858328  0.08809696  0.15800234    -0.82000
C98         C  0.08092431  0.08508527  0.16983967     0.98800
C99         C  0.08711400  0.02524269  0.06112523     1.06200
O100        O  0.17454004  0.07069178  0.09111181    -1.11000
O101        O  0.26670938  0.04180770  0.07404572    -0.73400
O102        O  0.21445822  0.01589202  0.12240012    -0.76900
O103        O  0.07993374  0.09419534  0.11998985    -0.77600
C104        C  0.25237887  0.01858362  0.09399492     0.97700
O105        O  0.20835063  0.06166992  0.20745224    -0.75500
O106        O  0.23231300  0.08003602  0.98914866    -0.80700
C107        C  0.18579169  0.13873429  0.06676582     1.00300
C108        C  0.19727664  0.08202571  0.95577680     1.06200
O109        O  0.14525801  0.12783814  0.05762497    -0.76400
C110        C  0.24253087  0.07904351  0.20411542     1.04500
Fe111      Fe  0.85122706  0.04270595  0.39332517     1.65800
Fe112      Fe  0.77251916  0.08258064  0.46949518     1.73200
Fe113      Fe  0.89319880  0.08720957  0.49550545     1.54400
O114        O  0.92584083  0.04856849  0.50905463    -0.80100
O115        O  0.78992059  0.12456556  0.47062841    -0.78400
O116        O  0.90050043  0.02024379  0.44063085    -0.82600
O117        O  0.90405139  0.06634208  0.35757558    -0.77500
O118        O  0.85939828  0.08357373  0.57247807    -0.79200
O119        O  0.75494607  0.08809282  0.38627795    -0.82000
C120        C  0.93260380  0.08508129  0.37444501     0.98800
C121        C  0.92641281  0.02523747  0.48315447     1.06200
O122        O  0.83898808  0.07068749  0.45317015    -1.11000
O123        O  0.74681783  0.04180481  0.47023410    -0.73400
O124        O  0.79906749  0.01588862  0.42187715    -0.76900
O125        O  0.93359263  0.09419229  0.42429481    -0.77600
C126        C  0.76114717  0.01858070  0.45028290     0.97700
O127        O  0.80517997  0.06166619  0.33682768    -0.75500
O128        O  0.78121443  0.08003399  0.55513227    -0.80700
C129        C  0.82773820  0.13873008  0.47752413     1.00300
C130        C  0.81625042  0.08202074  0.58850570     1.06200
O131        O  0.86827044  0.12783306  0.48666816    -0.76400
C132        C  0.77099939  0.07903954  0.34016465     1.04500
Fe133      Fe  0.35124255  0.15965576  0.65095740     1.65800
Fe134      Fe  0.27252744  0.11978615  0.57478760     1.73200
Fe135      Fe  0.39320633  0.11514908  0.54877785     1.54400
O136        O  0.42585613  0.15378812  0.53522807    -0.80100
O137        O  0.28992043  0.07780039  0.57365666    -0.78400
O138        O  0.40052055  0.18211451  0.60365172    -0.82600
O139        O  0.40406190  0.13601591  0.68670705    -0.77500
O140        O  0.35940715  0.11878698  0.47180538    -0.79200
O141        O  0.25495251  0.11427546  0.65800472    -0.82000
C142        C  0.43261061  0.11727469  0.66983778     0.98800
C143        C  0.42643242  0.17711927  0.56112818     1.06200
O144        O  0.33899856  0.13167498  0.59111264    -1.11000
O145        O  0.24683447  0.16056332  0.57404762    -0.73400
O146        O  0.29908795  0.18647661  0.62240510    -0.76900
O147        O  0.43359841  0.10816383  0.61998802    -0.77600
C148        C  0.26116749  0.18378663  0.59399874     0.97700
O149        O  0.30519181  0.14069850  0.70745487    -0.75500
O150        O  0.28122390  0.12233190  0.48915048    -0.80700
C151        C  0.32773523  0.06363324  0.56676338     1.00300
C152        C  0.31625990  0.12034303  0.45577750     1.06200
O153        O  0.36826965  0.07452716  0.55761739    -0.76400
C154        C  0.27100785  0.12332744  0.70411793     1.04500
Fe155      Fe  0.66228445  0.15965300  0.89332722     1.65800
Fe156      Fe  0.74099871  0.11978396  0.96949678     1.73200
Fe157      Fe  0.62031989  0.11514874  0.99550856     1.54400
O158        O  0.58766965  0.15378821  0.00905439    -0.80100
O159        O  0.72360463  0.07779836  0.97062789    -0.78400
O160        O  0.61301014  0.18211414  0.94063410    -0.82600
O161        O  0.60946181  0.13601405  0.85758054    -0.77500
O162        O  0.65411891  0.11878941  0.07248102    -0.79200
O163        O  0.75857348  0.11427257  0.88627920    -0.82000
C164        C  0.58091446  0.11727220  0.87444922     0.98800
C165        C  0.58709632  0.17711941  0.98315584     1.06200
O166        O  0.67452789  0.13167318  0.95317251    -1.11000
O167        O  0.76669292  0.16056104  0.97023748    -0.73400
O168        O  0.71444209  0.18647325  0.92187568    -0.76900
O169        O  0.57992868  0.10816076  0.92429817    -0.77600
C170        C  0.75236179  0.18378369  0.95028322     0.97700
O171        O  0.70833189  0.14069319  0.83682880    -0.75500
O172        O  0.73230257  0.12232999  0.05513424    -0.80700
C173        C  0.68579010  0.06363167  0.97752754     1.00300
C174        C  0.69726676  0.12034319  0.08850798     1.06200
O175        O  0.64525638  0.07452642  0.98667488    -0.76400
C176        C  0.74251682  0.12332289  0.84016567     1.04500
C177        C  0.46563633  0.10639024  0.70989687    -0.16900
C178        C  0.49183800  0.10146220  0.74850414     0.07100
C179        C  0.52168561  0.10146117  0.79578257     0.09000
C180        C  0.54788782  0.10638794  0.83439031    -0.17800
C181        C  0.80586136  0.08509706  0.64720307    -0.16900
C182        C  0.79433673  0.09196458  0.69401679     0.07100
C183        C  0.77846322  0.10280166  0.74606823     0.09000
C184        C  0.76313550  0.11263320  0.78915502    -0.17800
C185        C  0.75038181  0.08972943  0.28915398    -0.16900
C186        C  0.73505455  0.09956143  0.24606839     0.07100
C187        C  0.71918098  0.11039935  0.19401798     0.09000
C188        C  0.70765623  0.11726725  0.14720531    -0.17800
C189        C  0.26314892  0.08973341  0.25512623    -0.16900
C190        C  0.27847557  0.09956486  0.29821309     0.07100
C191        C  0.29434774  0.11040142  0.35026561     0.09000
C192        C  0.30587128  0.11726795  0.39707979    -0.17800
C193        C  0.25038890  0.11263848  0.75512871    -0.16900
C194        C  0.23506148  0.10280711  0.79821476     0.07100
C195        C  0.21918851  0.09196988  0.85026608     0.09000
C196        C  0.20766475  0.08510231  0.89707923    -0.17800
C197        C  0.96563281  0.09596302  0.33438620    -0.16900
C198        C  0.99183726  0.10088947  0.29578040     0.07100
C199        C  0.02168850  0.10089065  0.24850468     0.09000
C200        C  0.04789400  0.09596587  0.20989877    -0.17800
C201        C  0.68967902  0.03367204  0.97490775    -0.16900
C202        C  0.69831568  0.00894812  0.97176593     0.07100
C203        C  0.71470229  0.48109598  0.96652809     0.09000
C204        C  0.73367200  0.45862365  0.96023863    -0.17800
C205        C  0.82377050  0.28370150  0.97441343    -0.16900
C206        C  0.81521619  0.25896320  0.97139821     0.07100
C207        C  0.79894018  0.23107658  0.96638650     0.09000
C208        C  0.78002302  0.20857551  0.96028308    -0.17800
C209        C  0.95958092  0.44863940  0.00174445    -0.16900
C210        C  0.98914938  0.46606669  0.01495314     0.07100
C211        C  0.02457432  0.48626958  0.02950906     0.09000
C212        C  0.05412751  0.00371310  0.04267938    -0.17800
C213        C  0.27985136  0.45862680  0.58408310    -0.16900
C214        C  0.29882123  0.48109878  0.57779139     0.07100
C215        C  0.31520869  0.00895041  0.57254372     0.09000
C216        C  0.32384585  0.03367367  0.56939187    -0.17800
C217        C  0.23350786  0.20857837  0.58399573    -0.16900
C218        C  0.21459092  0.23107926  0.57788757     0.07100
C219        C  0.19831453  0.25896521  0.57287036     0.09000
C220        C  0.18975923  0.28370344  0.56985293    -0.17800
C221        C  0.95939923  0.00370803  0.50160041    -0.16900
C222        C  0.98895316  0.48626591  0.51477304     0.07100
C223        C  0.02437953  0.46606481  0.52933228     0.09000
C224        C  0.05394863  0.44863861  0.54254254    -0.17800
C225        C  0.04773749  0.35632005  0.70979122    -0.16900
C226        C  0.02161873  0.35135129  0.74844675     0.07100
C227        C  0.99189030  0.35135278  0.79581497     0.09000
C228        C  0.96577573  0.35632326  0.83447380    -0.17800
C229        C  0.23365954  0.24374431  0.08407711    -0.16900
C230        C  0.21469150  0.22127142  0.07778719     0.07100
C231        C  0.19830920  0.19341837  0.07254325     0.09000
C232        C  0.18967672  0.16869427  0.06939394    -0.17800
C233        C  0.28004121  0.99379254  0.08399147    -0.16900
C234        C  0.29895661  0.47129089  0.07788576     0.07100
C235        C  0.31522888  0.44340358  0.07287251     0.09000
C236        C  0.32378009  0.41866467  0.06985739    -0.17800
C237        C  0.45956144  0.25372129  0.04253678    -0.16900
C238        C  0.48912841  0.23629327  0.02932801     0.07100
C239        C  0.52455334  0.21609057  0.01477170     0.09000
C240        C  0.55410753  0.19864785  0.00160114    -0.17800
C241        C  0.25088505  0.33946642  0.25578372    -0.16900
C242        C  0.23555880  0.34932711  0.29883816     0.07100
C243        C  0.21961397  0.36023695  0.35078901     0.09000
C244        C  0.20798197  0.36716996  0.39752132    -0.17800
C245        C  0.26263701  0.36290548  0.75578663    -0.16900
C246        C  0.27796442  0.35304525  0.79884004     0.07100
C247        C  0.29391066  0.34213513  0.85078983     0.09000
C248        C  0.30554309  0.33520129  0.89752086    -0.17800
C249        C  0.77988095  0.24374180  0.46023513    -0.16900
C250        C  0.79884741  0.22126850  0.46652440     0.07100
C251        C  0.81522603  0.19341477  0.47176178     0.09000
C252        C  0.82385526  0.16869005  0.47490354    -0.17800
C253        C  0.73348419  0.99378994  0.46028477    -0.16900
C254        C  0.71457011  0.47128790  0.46638869     0.07100
C255        C  0.69830167  0.44339995  0.47139975     0.09000
C256        C  0.68975414  0.41866063  0.47441416    -0.17800
C257        C  0.55397279  0.25371675  0.50174211    -0.16900
C258        C  0.52440427  0.23628983  0.51495224     0.07100
C259        C  0.48897782  0.21608858  0.52951050     0.09000
C260        C  0.45942230  0.19864684  0.54268242    -0.17800
C261        C  0.75087939  0.36291506  0.78850188    -0.16900
C262        C  0.73555136  0.35305552  0.74544762     0.07100
C263        C  0.71960653  0.34214454  0.69349671     0.09000
C264        C  0.70797695  0.33520863  0.64676557    -0.17800
C265        C  0.80556654  0.36715594  0.14676705    -0.16900
C266        C  0.79393721  0.36022054  0.19349848     0.07100
C267        C  0.77799313  0.34930984  0.24544901     0.09000
C268        C  0.76266568  0.33945016  0.28850322    -0.17800
C269        C  0.54776347  0.34602740  0.33447051    -0.16900
C270        C  0.52164618  0.35099689  0.29581379     0.07100
C271        C  0.49191432  0.35099982  0.24844853     0.09000
C272        C  0.46579201  0.34603413  0.20979427    -0.17800
Fe273      Fe  0.74095701  0.83253924  0.46891556     1.65800
Fe274      Fe  0.66202444  0.79258990  0.39321453     1.73200
Fe275      Fe  0.62036350  0.83719713  0.49541450     1.54400
O276        O  0.65421609  0.83336691  0.57229624    -0.80100
O277        O  0.60896943  0.81615840  0.35773185    -0.78400
O278        O  0.73240374  0.83030987  0.55460313    -0.82600
O279        O  0.72362746  0.87453068  0.46950148    -0.77500
O280        O  0.58745082  0.79861549  0.50881493    -0.79200
O281        O  0.70774959  0.81156478  0.33640211    -0.82000
C282        C  0.68590033  0.88869736  0.47701350     0.98800
C283        C  0.69743968  0.83207501  0.58812704     1.06200
O284        O  0.67444068  0.82062942  0.45291085    -1.11000
O285        O  0.71440376  0.76584015  0.42153887    -0.73400
O286        O  0.76650993  0.79174563  0.47014690    -0.76900
O287        O  0.64548017  0.87780129  0.48682466    -0.77600
C288        C  0.75224203  0.76852801  0.45010860     0.97700
O289        O  0.75847676  0.83776487  0.38562088    -0.75500
O290        O  0.61303100  0.77010385  0.44083611    -0.80700
C291        C  0.58073040  0.83508425  0.37451723     1.00300
C292        C  0.58698791  0.77520806  0.48318982     1.06200
O293        O  0.58003544  0.84435552  0.42425352    -0.76400
C294        C  0.74213617  0.82879951  0.33958440     1.04500
Fe295      Fe  0.27257987  0.83254220  0.07537195     1.65800
Fe296      Fe  0.35151910  0.79259927  0.15107343     1.73200
Fe297      Fe  0.39317160  0.83720098  0.04886202     1.54400
O298        O  0.35930849  0.83337334  0.97198582    -0.80100
O299        O  0.40457088  0.81617242  0.18655055    -0.78400
O300        O  0.28112378  0.83029978  0.98968504    -0.82600
O301        O  0.28990860  0.87453398  0.07476158    -0.77500
O302        O  0.42607615  0.79861765  0.03545280    -0.79200
O303        O  0.30579164  0.81157448  0.20788424    -0.82000
C304        C  0.32763663  0.88870130  0.06725993     0.98800
C305        C  0.31608487  0.83207144  0.95615843     1.06200
O306        O  0.33909783  0.82063488  0.09137326    -1.11000
O307        O  0.29914409  0.76584481  0.12275457    -0.73400
O308        O  0.24702485  0.79174860  0.07416459    -0.76900
O309        O  0.36805963  0.87780572  0.05746218    -0.77600
C310        C  0.26129891  0.76853135  0.09419721     0.97700
O311        O  0.25507173  0.83777939  0.15866660    -0.75500
O312        O  0.40051560  0.77011382  0.10345362    -0.80700
C313        C  0.43281687  0.83509210  0.16975492     1.00300
C314        C  0.42654791  0.77521371  0.06108905     1.06200
O315        O  0.43351313  0.84435696  0.12001449    -0.76400
C316        C  0.27141059  0.82881308  0.20470266     1.04500
Fe317      Fe  0.24094408  0.86982799  0.57537435     1.65800
Fe318      Fe  0.16199676  0.90976648  0.65107619     1.73200
Fe319      Fe  0.12035396  0.86516283  0.54886005     1.54400
O320        O  0.15421532  0.86899748  0.47198485    -0.80100
O321        O  0.10894593  0.88619056  0.68654767    -0.78400
O322        O  0.23240002  0.87206705  0.48968698    -0.82600
O323        O  0.22362291  0.82783559  0.57476746    -0.77500
O324        O  0.08743855  0.90374346  0.53545985    -0.79200
O325        O  0.20772344  0.89079247  0.70788802    -0.82000
C326        C  0.18589846  0.81366640  0.56725598     0.98800
C327        C  0.19743950  0.87029813  0.45615896     1.06200
O328        O  0.17442394  0.88173178  0.59137430    -1.11000
O329        O  0.21437073  0.93652321  0.62276280    -0.73400
O330        O  0.26649070  0.91062283  0.57416461    -0.76900
O331        O  0.14547549  0.82455976  0.55744970    -0.77600
C332        C  0.25221476  0.93383883  0.59420201     0.97700
O333        O  0.25845384  0.86459437  0.65866932    -0.75500
O334        O  0.11300016  0.93225063  0.60345581    -0.80700
C335        C  0.08070811  0.86726635  0.66975208     1.00300
C336        C  0.08696563  0.92714823  0.56109420     1.06200
O337        O  0.08001673  0.85800002  0.62001218    -0.76400
C338        C  0.24211015  0.87355784  0.70470578     1.04500
Fe339      Fe  0.77258529  0.86982553  0.96891565     1.65800
Fe340      Fe  0.85152526  0.90977023  0.89321771     1.73200
Fe341      Fe  0.89317756  0.86516103  0.99541696     1.54400
O342        O  0.85932811  0.86899928  0.07229885    -0.80100
O343        O  0.90458237  0.88620058  0.85773991    -0.78400
O344        O  0.78114007  0.87204995  0.05460398    -0.82600
O345        O  0.78990684  0.82783343  0.96949049    -0.77500
O346        O  0.92610246  0.90374025  0.00881000    -0.79200
O347        O  0.80580394  0.89079469  0.83640176    -0.82000
C348        C  0.82762972  0.81366456  0.97701317     0.98800
C349        C  0.81610399  0.87028848  0.08812874     1.06200
O350        O  0.83910375  0.88173165  0.95291281    -1.11000
O351        O  0.79914442  0.93652149  0.92153636    -0.73400
O352        O  0.74704121  0.91062050  0.97015713    -0.76900
O353        O  0.86804988  0.82455835  0.98683567    -0.77600
C354        C  0.76130882  0.93383652  0.95011253     0.97700
O355        O  0.75506228  0.86460475  0.88562002    -0.75500
O356        O  0.90051544  0.93225623  0.94084381    -0.80700
C357        C  0.93281202  0.86726928  0.87452168     1.00300
C358        C  0.92656330  0.92714924  0.98319153     1.06200
O359        O  0.93350010  0.85799478  0.92425503    -0.76400
C360        C  0.77140980  0.87356533  0.83958359     1.04500
Fe361      Fe  0.16230101  0.54271055  0.15095556     1.65800
Fe362      Fe  0.24100923  0.58258383  0.07478545     1.73200
Fe363      Fe  0.12032910  0.58721468  0.04877925     1.54400
O364        O  0.08768804  0.54857326  0.03522424    -0.80100
O365        O  0.22360930  0.62456899  0.07365340    -0.78400
O366        O  0.11302493  0.52024964  0.10365020    -0.82600
O367        O  0.10947912  0.56634757  0.18670864    -0.77500
O368        O  0.15412954  0.58358135  0.97180589    -0.79200
O369        O  0.25858327  0.58809696  0.15800229    -0.82000
C370        C  0.08092426  0.58508528  0.16983967     0.98800
C371        C  0.08711402  0.52524268  0.06112529     1.06200
O372        O  0.17454002  0.57069177  0.09111179    -1.11000
O373        O  0.26670933  0.54180768  0.07404573    -0.73400
O374        O  0.21445817  0.51589202  0.12240016    -0.76900
O375        O  0.07993370  0.59419530  0.11998979    -0.77600
C376        C  0.25237883  0.51858361  0.09399495     0.97700
O377        O  0.20835064  0.56166994  0.20745223    -0.75500
O378        O  0.23231296  0.58003598  0.98914863    -0.80700
C379        C  0.18579165  0.63873431  0.06676579     1.00300
C380        C  0.19727662  0.58202568  0.95577675     1.06200
O381        O  0.14525792  0.62783811  0.05762492    -0.76400
C382        C  0.24253087  0.57904352  0.20411539     1.04500
Fe383      Fe  0.85122705  0.54270593  0.39332519     1.65800
Fe384      Fe  0.77251919  0.58258066  0.46949516     1.73200
Fe385      Fe  0.89319882  0.58720955  0.49550545     1.54400
O386        O  0.92584083  0.54856849  0.50905465    -0.80100
O387        O  0.78992064  0.62456560  0.47062840    -0.78400
O388        O  0.90050045  0.52024379  0.44063083    -0.82600
O389        O  0.90405134  0.56634206  0.35757557    -0.77500
O390        O  0.85939828  0.58357372  0.57247806    -0.79200
O391        O  0.75494613  0.58809284  0.38627794    -0.82000
C392        C  0.93260381  0.58508127  0.37444497     0.98800
C393        C  0.92641289  0.52523743  0.48315448     1.06200
O394        O  0.83898808  0.57068748  0.45317015    -1.11000
O395        O  0.74681780  0.54180484  0.47023404    -0.73400
O396        O  0.79906752  0.51588861  0.42187724    -0.76900
O397        O  0.93359264  0.59419225  0.42429482    -0.77600
C398        C  0.76114714  0.51858069  0.45028294     0.97700
O399        O  0.80517994  0.56166613  0.33682771    -0.75500
O400        O  0.78121444  0.58003398  0.55513224    -0.80700
C401        C  0.82773829  0.63873004  0.47752414     1.00300
C402        C  0.81625042  0.58202073  0.58850569     1.06200
O403        O  0.86827047  0.62783307  0.48666815    -0.76400
C404        C  0.77099937  0.57903954  0.34016460     1.04500
Fe405      Fe  0.35124256  0.65965578  0.65095738     1.65800
Fe406      Fe  0.27252744  0.61978615  0.57478763     1.73200
Fe407      Fe  0.39320633  0.61514906  0.54877787     1.54400
O408        O  0.42585613  0.65378812  0.53522806    -0.80100
O409        O  0.28992038  0.57780040  0.57365670    -0.78400
O410        O  0.40052057  0.68211452  0.60365168    -0.82600
O411        O  0.40406192  0.63601592  0.68670703    -0.77500
O412        O  0.35940711  0.61878695  0.47180540    -0.79200
O413        O  0.25495251  0.61427548  0.65800473    -0.82000
C414        C  0.43261061  0.61727470  0.66983779     0.98800
C415        C  0.42643241  0.67711925  0.56112815     1.06200
O416        O  0.33899856  0.63167498  0.59111265    -1.11000
O417        O  0.24683446  0.66056335  0.57404764    -0.73400
O418        O  0.29908794  0.68647664  0.62240506    -0.76900
O419        O  0.43359841  0.60816381  0.61998803    -0.77600
C420        C  0.26116751  0.68378662  0.59399873     0.97700
O421        O  0.30519181  0.64069852  0.70745487    -0.75500
O422        O  0.28122385  0.62233190  0.48915050    -0.80700
C423        C  0.32773520  0.56363323  0.56676341     1.00300
C424        C  0.31625987  0.62034301  0.45577752     1.06200
O425        O  0.36826960  0.57452715  0.55761744    -0.76400
C426        C  0.27100787  0.62332746  0.70411797     1.04500
Fe427      Fe  0.66228449  0.65965299  0.89332721     1.65800
Fe428      Fe  0.74099875  0.61978394  0.96949676     1.73200
Fe429      Fe  0.62031994  0.61514875  0.99550858     1.54400
O430        O  0.58766965  0.65378823  0.00905438    -0.80100
O431        O  0.72360466  0.57779833  0.97062782    -0.78400
O432        O  0.61301013  0.68211415  0.94063410    -0.82600
O433        O  0.60946185  0.63601404  0.85758052    -0.77500
O434        O  0.65411894  0.61878946  0.07248102    -0.79200
O435        O  0.75857352  0.61427256  0.88627917    -0.82000
C436        C  0.58091452  0.61727218  0.87444923     0.98800
C437        C  0.58709640  0.67711937  0.98315575     1.06200
O438        O  0.67452793  0.63167318  0.95317250    -1.11000
O439        O  0.76669295  0.66056099  0.97023749    -0.73400
O440        O  0.71444210  0.68647322  0.92187568    -0.76900
O441        O  0.57992874  0.60816075  0.92429817    -0.77600
C442        C  0.75236188  0.68378374  0.95028324     0.97700
O443        O  0.70833192  0.64069320  0.83682878    -0.75500
O444        O  0.73230262  0.62232996  0.05513420    -0.80700
C445        C  0.68579010  0.56363171  0.97752756     1.00300
C446        C  0.69726682  0.62034321  0.08850803     1.06200
O447        O  0.64525644  0.57452641  0.98667496    -0.76400
C448        C  0.74251686  0.62332288  0.84016565     1.04500
C449        C  0.46563634  0.60639025  0.70989690    -0.16900
C450        C  0.49183801  0.60146221  0.74850414     0.07100
C451        C  0.52168565  0.60146117  0.79578258     0.09000
C452        C  0.54788785  0.60638792  0.83439031    -0.17800
C453        C  0.80586135  0.58509705  0.64720304    -0.16900
C454        C  0.79433672  0.59196456  0.69401677     0.07100
C455        C  0.77846324  0.60280165  0.74606820     0.09000
C456        C  0.76313552  0.61263320  0.78915499    -0.17800
C457        C  0.75038186  0.58972939  0.28915404    -0.16900
C458        C  0.73505454  0.59956146  0.24606828     0.07100
C459        C  0.71918105  0.61039935  0.19401808     0.09000
C460        C  0.70765626  0.61726728  0.14720521    -0.17800
C461        C  0.26314895  0.58973341  0.25512618    -0.16900
C462        C  0.27847559  0.59956484  0.29821308     0.07100
C463        C  0.29434773  0.61040138  0.35026562     0.09000
C464        C  0.30587125  0.61726791  0.39707981    -0.17800
C465        C  0.25038894  0.61263849  0.75512872    -0.16900
C466        C  0.23506150  0.60280710  0.79821480     0.07100
C467        C  0.21918853  0.59196986  0.85026604     0.09000
C468        C  0.20766473  0.58510228  0.89707922    -0.17800
C469        C  0.96563276  0.59596298  0.33438624    -0.16900
C470        C  0.99183729  0.60088946  0.29578030     0.07100
C471        C  0.02168842  0.60089066  0.24850471     0.09000
C472        C  0.04789401  0.59596587  0.20989866    -0.17800
C473        C  0.68967905  0.53367195  0.97490777    -0.16900
C474        C  0.69831566  0.50894819  0.97176597     0.07100
C475        C  0.71470220  0.98109607  0.96652809     0.09000
C476        C  0.73367205  0.95862360  0.96023859    -0.17800
C477        C  0.82377041  0.78370162  0.97441346    -0.16900
C478        C  0.81521605  0.75896308  0.97139822     0.07100
C479        C  0.79894024  0.73107670  0.96638655     0.09000
C480        C  0.78002296  0.70857539  0.96028307    -0.17800
C481        C  0.95958091  0.94863937  0.00174438    -0.16900
C482        C  0.98914943  0.96606671  0.01495309     0.07100
C483        C  0.02457427  0.98626958  0.02950896     0.09000
C484        C  0.05412749  0.50371306  0.04267943    -0.17800
C485        C  0.27985149  0.95862678  0.58408304    -0.16900
C486        C  0.29882135  0.98109877  0.57779133     0.07100
C487        C  0.31520859  0.50895042  0.57254377     0.09000
C488        C  0.32384578  0.53367367  0.56939191    -0.17800
C489        C  0.23350780  0.70857843  0.58399570    -0.16900
C490        C  0.21459093  0.73107921  0.57788757     0.07100
C491        C  0.19831444  0.75896528  0.57287034     0.09000
C492        C  0.18975919  0.78370340  0.56985293    -0.17800
C493        C  0.95939921  0.50370808  0.50160034    -0.16900
C494        C  0.98895301  0.98626598  0.51477304     0.07100
C495        C  0.02437960  0.96606479  0.52933236     0.09000
C496        C  0.05394855  0.94863870  0.54254252    -0.17800
C497        C  0.04773754  0.85632015  0.70979115    -0.16900
C498        C  0.02161864  0.85135135  0.74844682     0.07100
C499        C  0.99189030  0.85135279  0.79581484     0.09000
C500        C  0.96577558  0.85632325  0.83447385    -0.17800
C501        C  0.23365949  0.74374435  0.08407707    -0.16900
C502        C  0.21469136  0.72127138  0.07778714     0.07100
C503        C  0.19830915  0.69341841  0.07254322     0.09000
C504        C  0.18967662  0.66869422  0.06939390    -0.17800
C505        C  0.28004114  0.49379253  0.08399151    -0.16900
C506        C  0.29895667  0.97129091  0.07788573     0.07100
C507        C  0.31522893  0.94340358  0.07287249     0.09000
C508        C  0.32378013  0.91866469  0.06985739    -0.17800
C509        C  0.45956152  0.75372120  0.04253670    -0.16900
C510        C  0.48912825  0.73629334  0.02932804     0.07100
C511        C  0.52455347  0.71609048  0.01477158     0.09000
C512        C  0.55410741  0.69864792  0.00160114    -0.17800
C513        C  0.25088507  0.83946643  0.25578371    -0.16900
C514        C  0.23555882  0.84932715  0.29883821     0.07100
C515        C  0.21961403  0.86023698  0.35078900     0.09000
C516        C  0.20798202  0.86717000  0.39752137    -0.17800
C517        C  0.26263697  0.86290554  0.75578665    -0.16900
C518        C  0.27796443  0.85304528  0.79884012     0.07100
C519        C  0.29391065  0.84213516  0.85078982     0.09000
C520        C  0.30554311  0.83520131  0.89752092    -0.17800
C521        C  0.77988105  0.74374174  0.46023523    -0.16900
C522        C  0.79884737  0.72126860  0.46652443     0.07100
C523        C  0.81522614  0.69341468  0.47176183     0.09000
C524        C  0.82385531  0.66869015  0.47490355    -0.17800
C525        C  0.73348420  0.49378998  0.46028480    -0.16900
C526        C  0.71457016  0.97128793  0.46638866     0.07100
C527        C  0.69830163  0.94339991  0.47139974     0.09000
C528        C  0.68975410  0.91866068  0.47441415    -0.17800
C529        C  0.55397272  0.75371673  0.50174213    -0.16900
C530        C  0.52440430  0.73628985  0.51495222     0.07100
C531        C  0.48897778  0.71608854  0.52951049     0.09000
C532        C  0.45942234  0.69864684  0.54268235    -0.17800
C533        C  0.75087932  0.86291509  0.78850194    -0.16900
C534        C  0.73555124  0.85305553  0.74544757     0.07100
C535        C  0.71960646  0.84214458  0.69349677     0.09000
C536        C  0.70797685  0.83520865  0.64676551    -0.17800
C537        C  0.80556652  0.86715596  0.14676706    -0.16900
C538        C  0.79393719  0.86022054  0.19349851     0.07100
C539        C  0.77799313  0.84930984  0.24544901     0.09000
C540        C  0.76266567  0.83945014  0.28850323    -0.17800
C541        C  0.54776351  0.84602737  0.33447047    -0.16900
C542        C  0.52164617  0.85099686  0.29581371     0.07100
C543        C  0.49191430  0.85099980  0.24844855     0.09000
C544        C  0.46579193  0.84603410  0.20979427    -0.17800
loop_ 
_geom_bond_atom_site_label_1 
_geom_bond_atom_site_label_2 
_geom_bond_distance 
_geom_bond_site_symmetry_2 
_ccdc_geom_bond_type 
Fe1          O17   2.063       .  S
Fe1           O7   2.055       .  S
Fe1          O14   2.068       .  S
Fe1           O6   2.062       .  S
Fe1          O12   1.984       .  S
Fe2           O5   2.044       .  S
Fe2           O9   2.072       .  S
Fe2          O13   2.056       .  S
Fe2          O18   2.078       .  S
Fe2          O12   1.982       .  S
Fe3          O21   2.068       .  S
Fe3           O8   2.078       .  S
Fe3          O15   2.065       .  S
Fe3           O4   2.073       .  S
Fe3          O12   1.986       .  S
O4           C11   1.269       .  A
O5           C19   1.263       .  A
O6           C11   1.267       .  A
O7           C10   1.266       .  A
O8           C20   1.270       .  A
O9           C22   1.267       .  A
C10          O15   1.267       .  A
C10         C256   1.430       .  S
C11         C264   1.438       .  S
O13          C16   1.266       .  A
O14          C16   1.268       .  A
C16         C249   1.431       .  S
O17          C22   1.264       .  A
O18          C20   1.270       .  A
C19          O21   1.266       .  A
C19         C269   1.427       .  S
C20         C257   1.447       .  S
C22         C268   1.440       .  S
Fe23         O39   2.063       .  S
Fe23         O29   2.055       .  S
Fe23         O36   2.068       .  S
Fe23         O28   2.062   1_554  S
Fe23         O34   1.984       .  S
Fe24         O27   2.044       .  S
Fe24         O31   2.072       .  S
Fe24         O35   2.056       .  S
Fe24         O40   2.078       .  S
Fe24         O34   1.982       .  S
Fe25         O43   2.068       .  S
Fe25         O30   2.078       .  S
Fe25         O37   2.065       .  S
Fe25         O26   2.073   1_554  S
Fe25         O34   1.986       .  S
O26          C33   1.269       .  A
O27          C41   1.263       .  A
O28          C33   1.267       .  A
O29          C32   1.266       .  A
O30          C42   1.270       .  A
O31          C44   1.267       .  A
C32          O37   1.267       .  A
C32         C236   1.430       .  S
C33         C248   1.438       .  S
O35          C38   1.266       .  A
O36          C38   1.268       .  A
C38         C229   1.431       .  S
O39          C44   1.264       .  A
O40          C42   1.270       .  A
C41          O43   1.266       .  A
C41         C272   1.427       .  S
C42         C237   1.447       .  S
C44         C241   1.440       .  S
Fe45         O61   2.063       .  S
Fe45         O51   2.055       .  S
Fe45         O58   2.068       .  S
Fe45         O50   2.062       .  S
Fe45         O56   1.984       .  S
Fe46         O49   2.044       .  S
Fe46         O53   2.072       .  S
Fe46         O57   2.056       .  S
Fe46         O62   2.078       .  S
Fe46         O56   1.982       .  S
Fe47         O65   2.068       .  S
Fe47         O52   2.078       .  S
Fe47         O59   2.065       .  S
Fe47         O48   2.073       .  S
Fe47         O56   1.986       .  S
O48          C55   1.269       .  A
O49          C63   1.263       .  A
O50          C55   1.267       .  A
O51          C54   1.266       .  A
O52          C64   1.270       .  A
O53          C66   1.267       .  A
C54          O59   1.267       .  A
C54         C220   1.430       .  S
C55         C244   1.438       .  S
O57          C60   1.266       .  A
O58          C60   1.268       .  A
C60         C213   1.431       .  S
O61          C66   1.264       .  A
O62          C64   1.270       .  A
C63          O65   1.266       .  A
C63         C225   1.427       .  S
C64         C224   1.447       .  S
C66         C245   1.440       .  S
Fe67         O83   2.063       .  S
Fe67         O73   2.055       .  S
Fe67         O80   2.068       .  S
Fe67         O72   2.062   1_556  S
Fe67         O78   1.984       .  S
Fe68         O71   2.044       .  S
Fe68         O75   2.072       .  S
Fe68         O79   2.056       .  S
Fe68         O84   2.078       .  S
Fe68         O78   1.982       .  S
Fe69         O87   2.068       .  S
Fe69         O74   2.078   1_556  S
Fe69         O81   2.065       .  S
Fe69         O70   2.073   1_556  S
Fe69         O78   1.986       .  S
O70          C77   1.269       .  A
O71          C85   1.263       .  A
O72          C77   1.267       .  A
O73          C76   1.266       .  A
O74          C86   1.270   1_554  A
O75          C88   1.267       .  A
C76          O81   1.267       .  A
C76         C205   1.430       .  S
C77         C265   1.438       .  S
O79          C82   1.266       .  A
O80          C82   1.268       .  A
C82         C204   1.431       .  S
O83          C88   1.264       .  A
O84          C86   1.270       .  A
C85          O87   1.266       .  A
C85         C228   1.427       .  S
C86         C209   1.447   1_556  S
C88         C261   1.440       .  S
Fe89        O105   2.072       .  S
Fe89         O95   2.044       .  S
Fe89        O102   2.055       .  S
Fe89         O94   2.078       .  S
Fe89        O100   1.982       .  S
Fe90         O93   2.055       .  S
Fe90         O97   2.063       .  S
Fe90        O101   2.068       .  S
Fe90        O106   2.062   1_554  S
Fe90        O100   1.984       .  S
Fe91        O109   2.065       .  S
Fe91         O96   2.074   1_554  S
Fe91        O103   2.068       .  S
Fe91         O92   2.078       .  S
Fe91        O100   1.985       .  S
O92          C99   1.270       .  A
O93         C107   1.266       .  A
O94          C99   1.270       .  A
O95          C98   1.263       .  A
O96         C108   1.269       .  A
O97         C110   1.264       .  A
C98         O103   1.266       .  A
C98         C200   1.427       .  S
C99         C212   1.447       .  S
O101        C104   1.268       .  A
O102        C104   1.266       .  A
C104        C233   1.431   1_545  S
O105        C110   1.267       .  A
O106        C108   1.267       .  A
C107        O109   1.267       .  A
C107        C232   1.430       .  S
C108        C196   1.438       .  S
C110        C189   1.440       .  S
Fe111       O127   2.072       .  S
Fe111       O117   2.044       .  S
Fe111       O124   2.055       .  S
Fe111       O116   2.078       .  S
Fe111       O122   1.982       .  S
Fe112       O115   2.055       .  S
Fe112       O119   2.063       .  S
Fe112       O123   2.068       .  S
Fe112       O128   2.062       .  S
Fe112       O122   1.984       .  S
Fe113       O131   2.065       .  S
Fe113       O118   2.074       .  S
Fe113       O125   2.068       .  S
Fe113       O114   2.077       .  S
Fe113       O122   1.985       .  S
O114        C121   1.270       .  A
O115        C129   1.266       .  A
O116        C121   1.270       .  A
O117        C120   1.263       .  A
O118        C130   1.269       .  A
O119        C132   1.264       .  A
C120        O125   1.266       .  A
C120        C197   1.427       .  S
C121        C221   1.447       .  S
O123        C126   1.268       .  A
O124        C126   1.266       .  A
C126        C253   1.431   1_545  S
O127        C132   1.267       .  A
O128        C130   1.267       .  A
C129        O131   1.267       .  A
C129        C252   1.430       .  S
C130        C181   1.438       .  S
C132        C185   1.440       .  S
Fe133       O149   2.072       .  S
Fe133       O139   2.044       .  S
Fe133       O146   2.055       .  S
Fe133       O138   2.078       .  S
Fe133       O144   1.982       .  S
Fe134       O137   2.055       .  S
Fe134       O141   2.063       .  S
Fe134       O145   2.068       .  S
Fe134       O150   2.062       .  S
Fe134       O144   1.984       .  S
Fe135       O153   2.065       .  S
Fe135       O140   2.074       .  S
Fe135       O147   2.068       .  S
Fe135       O136   2.078       .  S
Fe135       O144   1.985       .  S
O136        C143   1.270       .  A
O137        C151   1.266       .  A
O138        C143   1.270       .  A
O139        C142   1.263       .  A
O140        C152   1.269       .  A
O141        C154   1.264       .  A
C142        O147   1.266       .  A
C142        C177   1.427       .  S
C143        C260   1.447       .  S
O145        C148   1.268       .  A
O146        C148   1.266       .  A
C148        C217   1.431       .  S
O149        C154   1.267       .  A
O150        C152   1.267       .  A
C151        O153   1.267       .  A
C151        C216   1.430       .  S
C152        C192   1.438       .  S
C154        C193   1.440       .  S
Fe155       O171   2.072       .  S
Fe155       O161   2.044       .  S
Fe155       O168   2.055       .  S
Fe155       O160   2.078       .  S
Fe155       O166   1.982       .  S
Fe156       O159   2.055       .  S
Fe156       O163   2.063       .  S
Fe156       O167   2.068       .  S
Fe156       O172   2.062   1_556  S
Fe156       O166   1.984       .  S
Fe157       O175   2.065       .  S
Fe157       O162   2.074   1_556  S
Fe157       O169   2.068       .  S
Fe157       O158   2.078   1_556  S
Fe157       O166   1.985       .  S
O158        C165   1.270   1_554  A
O159        C173   1.266       .  A
O160        C165   1.270       .  A
O161        C164   1.263       .  A
O162        C174   1.269       .  A
O163        C176   1.264       .  A
C164        O169   1.266       .  A
C164        C180   1.427       .  S
C165        C240   1.447   1_556  S
O167        C170   1.268       .  A
O168        C170   1.266       .  A
C170        C208   1.431       .  S
O171        C176   1.267       .  A
O172        C174   1.267       .  A
C173        O175   1.267       .  A
C173        C201   1.430       .  S
C174        C188   1.438       .  S
C176        C184   1.440       .  S
C177        C178   1.201       .  T
C178        C179   1.404       .  S
C179        C180   1.201       .  T
C181        C182   1.208       .  T
C182        C183   1.416       .  S
C183        C184   1.208       .  T
C185        C186   1.208       .  T
C186        C187   1.416       .  S
C187        C188   1.208       .  T
C189        C190   1.208       .  T
C190        C191   1.416       .  S
C191        C192   1.208       .  T
C193        C194   1.208       .  T
C194        C195   1.416       .  S
C195        C196   1.208       .  T
C197        C198   1.201       .  T
C198        C199   1.404   1_655  S
C199        C200   1.201       .  T
C201        C202   1.203       .  T
C202        C475   1.407   1_545  S
C203        C204   1.203       .  T
C203        C474   1.407       .  S
C205        C206   1.203       .  T
C206        C207   1.407       .  S
C207        C208   1.203       .  T
C209        C210   1.213       .  T
C210        C211   1.424   1_655  S
C211        C484   1.213       .  T
C212        C483   1.213   1_545  T
C213        C214   1.203       .  T
C214        C487   1.407       .  S
C215        C216   1.203       .  T
C215        C486   1.407   1_545  S
C217        C218   1.203       .  T
C218        C219   1.407       .  S
C219        C220   1.203       .  T
C221        C494   1.213   1_545  T
C222        C493   1.213       .  T
C222        C223   1.424   1_655  S
C223        C224   1.213       .  T
C225        C226   1.201       .  T
C226        C227   1.404   1_455  S
C227        C228   1.201       .  T
C229        C230   1.203       .  T
C230        C231   1.407       .  S
C231        C232   1.203       .  T
C233        C506   1.203       .  T
C234        C505   1.203       .  T
C234        C235   1.407       .  S
C235        C236   1.203       .  T
C237        C238   1.213       .  T
C238        C239   1.424       .  S
C239        C240   1.213       .  T
C241        C242   1.208       .  T
C242        C243   1.416       .  S
C243        C244   1.208       .  T
C245        C246   1.208       .  T
C246        C247   1.416       .  S
C247        C248   1.208       .  T
C249        C250   1.203       .  T
C250        C251   1.407       .  S
C251        C252   1.203       .  T
C253        C526   1.203       .  T
C254        C525   1.203       .  T
C254        C255   1.407       .  S
C255        C256   1.203       .  T
C257        C258   1.213       .  T
C258        C259   1.424       .  S
C259        C260   1.213       .  T
C261        C262   1.208       .  T
C262        C263   1.416       .  S
C263        C264   1.208       .  T
C265        C266   1.208       .  T
C266        C267   1.416       .  S
C267        C268   1.208       .  T
C269        C270   1.201       .  T
C270        C271   1.404       .  S
C271        C272   1.201       .  T
Fe273       O289   2.063       .  S
Fe273       O279   2.055       .  S
Fe273       O286   2.068       .  S
Fe273       O278   2.062       .  S
Fe273       O284   1.984       .  S
Fe274       O277   2.044       .  S
Fe274       O281   2.072       .  S
Fe274       O285   2.056       .  S
Fe274       O290   2.078       .  S
Fe274       O284   1.982       .  S
Fe275       O293   2.068       .  S
Fe275       O280   2.078       .  S
Fe275       O287   2.065       .  S
Fe275       O276   2.073       .  S
Fe275       O284   1.986       .  S
O276        C283   1.269       .  A
O277        C291   1.263       .  A
O278        C283   1.267       .  A
O279        C282   1.266       .  A
O280        C292   1.270       .  A
O281        C294   1.267       .  A
C282        O287   1.267       .  A
C282        C528   1.430       .  S
C283        C536   1.438       .  S
O285        C288   1.266       .  A
O286        C288   1.268       .  A
C288        C521   1.431       .  S
O289        C294   1.264       .  A
O290        C292   1.270       .  A
C291        O293   1.266       .  A
C291        C541   1.427       .  S
C292        C529   1.447       .  S
C294        C540   1.440       .  S
Fe295       O311   2.063       .  S
Fe295       O301   2.055       .  S
Fe295       O308   2.068       .  S
Fe295       O300   2.062   1_554  S
Fe295       O306   1.984       .  S
Fe296       O299   2.044       .  S
Fe296       O303   2.072       .  S
Fe296       O307   2.056       .  S
Fe296       O312   2.078       .  S
Fe296       O306   1.982       .  S
Fe297       O315   2.068       .  S
Fe297       O302   2.078       .  S
Fe297       O309   2.065       .  S
Fe297       O298   2.073   1_554  S
Fe297       O306   1.986       .  S
O298        C305   1.269       .  A
O299        C313   1.263       .  A
O300        C305   1.267       .  A
O301        C304   1.266       .  A
O302        C314   1.270       .  A
O303        C316   1.267       .  A
C304        O309   1.267       .  A
C304        C508   1.430       .  S
C305        C520   1.438       .  S
O307        C310   1.266       .  A
O308        C310   1.268       .  A
C310        C501   1.431       .  S
O311        C316   1.264       .  A
O312        C314   1.270       .  A
C313        O315   1.266       .  A
C313        C544   1.427       .  S
C314        C509   1.447       .  S
C316        C513   1.440       .  S
Fe317       O333   2.063       .  S
Fe317       O323   2.055       .  S
Fe317       O330   2.068       .  S
Fe317       O322   2.062       .  S
Fe317       O328   1.984       .  S
Fe318       O321   2.044       .  S
Fe318       O325   2.072       .  S
Fe318       O329   2.056       .  S
Fe318       O334   2.078       .  S
Fe318       O328   1.982       .  S
Fe319       O337   2.068       .  S
Fe319       O324   2.078       .  S
Fe319       O331   2.065       .  S
Fe319       O320   2.073       .  S
Fe319       O328   1.986       .  S
O320        C327   1.269       .  A
O321        C335   1.263       .  A
O322        C327   1.267       .  A
O323        C326   1.266       .  A
O324        C336   1.270       .  A
O325        C338   1.267       .  A
C326        O331   1.267       .  A
C326        C492   1.430       .  S
C327        C516   1.438       .  S
O329        C332   1.266       .  A
O330        C332   1.268       .  A
C332        C485   1.431       .  S
O333        C338   1.264       .  A
O334        C336   1.270       .  A
C335        O337   1.266       .  A
C335        C497   1.427       .  S
C336        C496   1.447       .  S
C338        C517   1.440       .  S
Fe339       O355   2.063       .  S
Fe339       O345   2.055       .  S
Fe339       O352   2.068       .  S
Fe339       O344   2.062   1_556  S
Fe339       O350   1.984       .  S
Fe340       O343   2.044       .  S
Fe340       O347   2.072       .  S
Fe340       O351   2.056       .  S
Fe340       O356   2.078       .  S
Fe340       O350   1.982       .  S
Fe341       O359   2.068       .  S
Fe341       O346   2.078   1_556  S
Fe341       O353   2.065       .  S
Fe341       O342   2.073   1_556  S
Fe341       O350   1.986       .  S
O342        C349   1.269       .  A
O343        C357   1.263       .  A
O344        C349   1.267       .  A
O345        C348   1.266       .  A
O346        C358   1.270   1_554  A
O347        C360   1.267       .  A
C348        O353   1.267       .  A
C348        C477   1.430       .  S
C349        C537   1.438       .  S
O351        C354   1.266       .  A
O352        C354   1.268       .  A
C354        C476   1.431       .  S
O355        C360   1.264       .  A
O356        C358   1.270       .  A
C357        O359   1.266       .  A
C357        C500   1.427       .  S
C358        C481   1.447   1_556  S
C360        C533   1.440       .  S
Fe361       O377   2.072       .  S
Fe361       O367   2.044       .  S
Fe361       O374   2.055       .  S
Fe361       O366   2.078       .  S
Fe361       O372   1.982       .  S
Fe362       O365   2.055       .  S
Fe362       O369   2.063       .  S
Fe362       O373   2.068       .  S
Fe362       O378   2.062   1_554  S
Fe362       O372   1.984       .  S
Fe363       O381   2.065       .  S
Fe363       O368   2.074   1_554  S
Fe363       O375   2.068       .  S
Fe363       O364   2.078       .  S
Fe363       O372   1.985       .  S
O364        C371   1.270       .  A
O365        C379   1.266       .  A
O366        C371   1.270       .  A
O367        C370   1.263       .  A
O368        C380   1.269       .  A
O369        C382   1.264       .  A
C370        O375   1.266       .  A
C370        C472   1.427       .  S
C371        C484   1.447       .  S
O373        C376   1.268       .  A
O374        C376   1.266       .  A
C376        C505   1.431       .  S
O377        C382   1.267       .  A
O378        C380   1.267       .  A
C379        O381   1.267       .  A
C379        C504   1.430       .  S
C380        C468   1.438       .  S
C382        C461   1.440       .  S
Fe383       O399   2.072       .  S
Fe383       O389   2.044       .  S
Fe383       O396   2.055       .  S
Fe383       O388   2.078       .  S
Fe383       O394   1.982       .  S
Fe384       O387   2.055       .  S
Fe384       O391   2.063       .  S
Fe384       O395   2.068       .  S
Fe384       O400   2.062       .  S
Fe384       O394   1.984       .  S
Fe385       O403   2.065       .  S
Fe385       O390   2.074       .  S
Fe385       O397   2.068       .  S
Fe385       O386   2.077       .  S
Fe385       O394   1.985       .  S
O386        C393   1.270       .  A
O387        C401   1.266       .  A
O388        C393   1.270       .  A
O389        C392   1.263       .  A
O390        C402   1.269       .  A
O391        C404   1.264       .  A
C392        O397   1.266       .  A
C392        C469   1.427       .  S
C393        C493   1.447       .  S
O395        C398   1.268       .  A
O396        C398   1.266       .  A
C398        C525   1.431       .  S
O399        C404   1.267       .  A
O400        C402   1.267       .  A
C401        O403   1.267       .  A
C401        C524   1.430       .  S
C402        C453   1.438       .  S
C404        C457   1.440       .  S
Fe405       O421   2.072       .  S
Fe405       O411   2.044       .  S
Fe405       O418   2.055       .  S
Fe405       O410   2.078       .  S
Fe405       O416   1.982       .  S
Fe406       O409   2.055       .  S
Fe406       O413   2.063       .  S
Fe406       O417   2.068       .  S
Fe406       O422   2.062       .  S
Fe406       O416   1.984       .  S
Fe407       O425   2.065       .  S
Fe407       O412   2.074       .  S
Fe407       O419   2.068       .  S
Fe407       O408   2.078       .  S
Fe407       O416   1.985       .  S
O408        C415   1.270       .  A
O409        C423   1.266       .  A
O410        C415   1.270       .  A
O411        C414   1.263       .  A
O412        C424   1.269       .  A
O413        C426   1.264       .  A
C414        O419   1.266       .  A
C414        C449   1.427       .  S
C415        C532   1.447       .  S
O417        C420   1.268       .  A
O418        C420   1.266       .  A
C420        C489   1.431       .  S
O421        C426   1.267       .  A
O422        C424   1.267       .  A
C423        O425   1.267       .  A
C423        C488   1.430       .  S
C424        C464   1.438       .  S
C426        C465   1.440       .  S
Fe427       O443   2.072       .  S
Fe427       O433   2.044       .  S
Fe427       O440   2.055       .  S
Fe427       O432   2.078       .  S
Fe427       O438   1.982       .  S
Fe428       O431   2.055       .  S
Fe428       O435   2.063       .  S
Fe428       O439   2.068       .  S
Fe428       O444   2.062   1_556  S
Fe428       O438   1.984       .  S
Fe429       O447   2.065       .  S
Fe429       O434   2.074   1_556  S
Fe429       O441   2.068       .  S
Fe429       O430   2.078   1_556  S
Fe429       O438   1.985       .  S
O430        C437   1.270   1_554  A
O431        C445   1.266       .  A
O432        C437   1.270       .  A
O433        C436   1.263       .  A
O434        C446   1.269       .  A
O435        C448   1.264       .  A
C436        O441   1.266       .  A
C436        C452   1.427       .  S
C437        C512   1.447   1_556  S
O439        C442   1.268       .  A
O440        C442   1.266       .  A
C442        C480   1.431       .  S
O443        C448   1.267       .  A
O444        C446   1.267       .  A
C445        O447   1.267       .  A
C445        C473   1.430       .  S
C446        C460   1.438       .  S
C448        C456   1.440       .  S
C449        C450   1.201       .  T
C450        C451   1.404       .  S
C451        C452   1.201       .  T
C453        C454   1.208       .  T
C454        C455   1.416       .  S
C455        C456   1.208       .  T
C457        C458   1.208       .  T
C458        C459   1.416       .  S
C459        C460   1.208       .  T
C461        C462   1.208       .  T
C462        C463   1.416       .  S
C463        C464   1.208       .  T
C465        C466   1.208       .  T
C466        C467   1.416       .  S
C467        C468   1.208       .  T
C469        C470   1.201       .  T
C470        C471   1.404   1_655  S
C471        C472   1.201       .  T
C473        C474   1.203       .  T
C475        C476   1.203       .  T
C477        C478   1.203       .  T
C478        C479   1.407       .  S
C479        C480   1.203       .  T
C481        C482   1.213       .  T
C482        C483   1.424   1_655  S
C485        C486   1.203       .  T
C487        C488   1.203       .  T
C489        C490   1.203       .  T
C490        C491   1.407       .  S
C491        C492   1.203       .  T
C494        C495   1.424   1_655  S
C495        C496   1.213       .  T
C497        C498   1.201       .  T
C498        C499   1.404   1_455  S
C499        C500   1.201       .  T
C501        C502   1.203       .  T
C502        C503   1.407       .  S
C503        C504   1.203       .  T
C506        C507   1.407       .  S
C507        C508   1.203       .  T
C509        C510   1.213       .  T
C510        C511   1.424       .  S
C511        C512   1.213       .  T
C513        C514   1.208       .  T
C514        C515   1.416       .  S
C515        C516   1.208       .  T
C517        C518   1.208       .  T
C518        C519   1.416       .  S
C519        C520   1.208       .  T
C521        C522   1.203       .  T
C522        C523   1.407       .  S
C523        C524   1.203       .  T
C526        C527   1.407       .  S
C527        C528   1.203       .  T
C529        C530   1.213       .  T
C530        C531   1.424       .  S
C531        C532   1.213       .  T
C533        C534   1.208       .  T
C534        C535   1.416       .  S
C535        C536   1.208       .  T
C537        C538   1.208       .  T
C538        C539   1.416       .  S
C539        C540   1.208       .  T
C541        C542   1.201       .  T
C542        C543   1.404       .  S
C543        C544   1.201       .  T
