geometry optimzed in LAMMPS
_audit_creation_date              2020-11-30 
_audit_creation_method            'lammps2cif' 
_symmetry_space_group_name_H-M    'P1' 
_symmetry_Int_Tables_number       1 
_symmetry_cell_setting            triclinic 
loop_ 
_symmetry_equiv_pos_as_xyz 
  x,y,z 
_cell_length_a                    28.011268948932017 
_cell_length_b                    28.03508266941609 
_cell_length_c                    24.203665246775156 
_cell_angle_alpha                 90.47411735469304 
_cell_angle_beta                  88.99541055525603 
_cell_angle_gamma                 89.29992760875031 
loop_ 
_atom_site_label 
_atom_site_type_symbol 
_atom_site_fract_x 
_atom_site_fract_y 
_atom_site_fract_z 
_atom_site_charge 
C1          C  0.36328665  0.51933064  0.36828909     0.44330
N2          N  0.40133642  0.49446619  0.43875737     0.03220
C3          C  0.03619350  0.12519176  0.09600062    -0.04660
H4          H  0.10196469  0.11191180  0.38212446     0.08710
C5          C  0.12877129  0.46247016  0.41144212    -0.05010
Co6        Co  0.43625889  0.06463378  0.49262652     0.74180
N7          N  0.04203211  0.09129863  0.43362176    -0.24190
Co8        Co  0.07106574  0.05391093  0.49932616     0.74070
C9          C  0.14504702  0.50595318  0.38480097     0.44430
N10         N  0.02741886  0.40097784  0.44359078     0.02830
N11         N  0.10497687  0.00565625  0.44390601     0.02940
N12         N  0.47525958  0.13147309  0.09884979    -0.45040
H13         H  0.38088712  0.07820820  0.37242729     0.08690
N14         N  0.47868091  0.09649118  0.43316429     0.03220
N15         N  0.09368931  0.01902460  0.06628708     0.02960
C16         C  0.13289576  0.00371459  0.13891389     0.44570
N17         N  0.46328297  0.40613543  0.44502282    -0.23650
C18         C  0.37694716  0.05947637  0.09478345    -0.04570
N19         N  0.37315457  0.48015679  0.39846929    -0.44750
N20         N  0.11754483  0.03940808  0.10666997    -0.44980
C21         C  0.35262366  0.01954731  0.12110871     0.44340
N22         N  0.49016748  0.10454381  0.05624163     0.03210
N23         N  0.47034831  0.39973993  0.06410386    -0.23670
N24         N  0.40344009  0.02575710  0.43166061    -0.24160
N25         N  0.01170512  0.40839479  0.06924421     0.02850
H26         H  0.41514965  0.36841039  0.11495391     0.08740
H27         H  0.12395423  0.42458553  0.12737156     0.08770
N28         N  0.02282688  0.09752280  0.05353691    -0.24210
N29         N  0.09865563  0.47781412  0.45150031    -0.23820
N30         N  0.39454984  0.47130657  0.05869061     0.03210
C31         C  0.50022175  0.13720876  0.36314591     0.44610
C32         C  0.44497570  0.38000158  0.40397065    -0.05070
N33         N  0.09430073  0.47655301  0.07172186    -0.23820
H34         H  0.13748483  0.42559735  0.40199082     0.08760
N35         N  0.46213288  0.12086399  0.39101387    -0.45040
H36         H  0.40786059  0.37940228  0.39244552     0.08750
C37         C  0.98264795  0.36834979  0.13634827     0.44450
C38         C  0.38388444  0.04147168  0.38522024    -0.04570
Co39       Co  0.43426621  0.43271320  0.00068388     0.73820
N40         N  0.05025491  0.37622144  0.40422957    -0.44760
C41         C  0.99150004  0.14451048  0.11938275     0.44710
N42         N  0.37237870  0.45251978  0.10170428    -0.44750
Co43       Co  0.05769735  0.43862389  0.01120510     0.73890
C44         C  0.11943188  0.46134039  0.11510010    -0.05080
C45         C  0.06390053  0.11175101  0.39034932    -0.04640
N46         N  0.40486977  0.03931396  0.05507959    -0.24170
N47         N  0.13235968  0.01604536  0.40037929    -0.44930
H48         H  0.07234440  0.12980458  0.10985949     0.08720
C49         C  0.45244572  0.37557764  0.10690119    -0.05050
Cl50       Cl  0.99846027  0.99616630  0.00129895    -0.48060
C51         C  0.48571526  0.35352380  0.38033937     0.44510
H52         H  0.37362589  0.09726778  0.10355756     0.08690
N53         N  0.02392790  0.38148913  0.11162460    -0.44770
C54         C  0.52026094  0.23041571  0.25038337     0.02430
C55         C  0.52576742  0.27832772  0.25511918     0.02430
C56         C  0.27010327  0.49190884  0.25716262     0.02430
C57         C  0.22339524  0.47955247  0.25857022     0.02430
C58         C  0.17181560  0.51022883  0.18580529    -0.14560
C59         C  0.19502728  0.47326868  0.20804061    -0.29740
H60         H  0.15464172  0.04150136  0.21432536     0.14460
H61         H  0.19066203  0.43740101  0.19184267     0.15030
C62         C  0.19727996  0.47300911  0.31113334    -0.14560
C63         C  0.17579773  0.51064649  0.33564981    -0.29740
H64         H  0.21438233  0.02477686  0.32961832     0.14460
H65         H  0.18001085  0.54598150  0.31817306     0.15030
C66         C  0.29337541  0.50478318  0.20378265    -0.14560
C67         C  0.33350964  0.48255749  0.18697236    -0.29740
H68         H  0.27515267  0.52895912  0.17605602     0.14460
H69         H  0.31165951  0.05571567  0.18851006     0.15030
C70         C  0.29932209  0.48987961  0.30832892    -0.14560
C71         C  0.33436597  0.52097058  0.31794103    -0.29740
H72         H  0.29093437  0.46324100  0.33928097     0.14460
H73         H  0.36143634  0.01889129  0.27104945     0.15030
C74         C  0.50805353  0.20847946  0.19554144    -0.14560
C75         C  0.51741097  0.16264873  0.18294378    -0.29740
H76         H  0.05005705  0.20649520  0.16976376     0.14460
H77         H  0.53544216  0.14010642  0.21247607     0.15030
C78         C  0.52682569  0.19998876  0.29992800    -0.14560
C79         C  0.49578401  0.16594631  0.31306903    -0.29740
H80         H  0.55598955  0.20769667  0.32753862     0.14460
H81         H  0.06231682  0.15570064  0.28311856     0.15030
C82         C  0.52986625  0.30866181  0.20578079    -0.14560
C83         C  0.49256170  0.33461863  0.18947264    -0.29740
H84         H  0.03930355  0.29591905  0.16823450     0.14460
H85         H  0.45893419  0.33327021  0.21240095     0.15030
C86         C  0.52640471  0.30308039  0.30945771    -0.14560
C87         C  0.48596204  0.32210244  0.33127146    -0.29740
H88         H  0.56057891  0.30918342  0.32862980     0.14460
H89         H  0.45223083  0.31624212  0.31097195     0.15030
C90         C  0.35738612  0.48493454  0.86717977     0.44330
N91         N  0.39887078  0.46802228  0.93784159     0.03220
C92         C  0.04860659  0.12495535  0.59953580    -0.04660
H93         H  0.09120024  0.11261842  0.88505634     0.08710
C94         C  0.12616442  0.44819620  0.91086771    -0.05010
Co95       Co  0.44977988  0.06996291  0.99536714     0.74180
N96         N  0.03176855  0.08726662  0.93386851    -0.24190
Co97       Co  0.06348719  0.05376920  0.99973861     0.74070
C98         C  0.14675843  0.48695715  0.87987432     0.44430
N99         N  0.02133325  0.40312969  0.94940707     0.02830
N100        N  0.10211848  0.00819179  0.94536726     0.02940
N101        N  0.45153654  0.12762893  0.59340537    -0.45040
H102        H  0.38908351  0.08667813  0.87706345     0.08690
N103        N  0.49496386  0.09858184  0.93453789     0.03220
N104        N  0.09860308  0.01533912  0.56486347     0.02960
C105        C  0.13730321  0.99651043  0.63727669     0.44570
N106        N  0.47626284  0.39473143  0.94402827    -0.23650
C107        C  0.36454901  0.05082765  0.59062635    -0.04570
N108        N  0.37626787  0.44845727  0.89587603    -0.44750
N109        N  0.12424943  0.03329258  0.60529444    -0.44980
C110        C  0.34412665  0.01006021  0.61880853     0.44340
N111        N  0.47179620  0.10198118  0.55318664     0.03210
N112        N  0.46007371  0.41329966  0.56549388    -0.23670
N113        N  0.41254763  0.03292784  0.93435507    -0.24160
N114        N  0.01554543  0.40173876  0.56458800     0.02850
H115        H  0.40081057  0.39252968  0.61789807     0.08740
H116        H  0.12372107  0.43000725  0.62607399     0.08770
N117        N  0.03431743  0.10029028  0.55481658    -0.24210
N118        N  0.10117946  0.46953277  0.95180244    -0.23820
N119        N  0.39887153  0.50001838  0.55928572     0.03210
C120        C  0.52285247  0.13417546  0.86325248     0.44610
C121        C  0.46412183  0.36757047  0.90079248    -0.05070
N122        N  0.08875569  0.47944863  0.57124683    -0.23820
H123        H  0.12863973  0.41025078  0.90291678     0.08760
N124        N  0.48218736  0.12494563  0.89184614    -0.45040
H125        H  0.42815277  0.36085375  0.88751078     0.08750
C126        C  0.98832991  0.36074167  0.63214991     0.44450
C127        C  0.39083013  0.04973633  0.88944679    -0.04570
Co128      Co  0.42991318  0.45283855  0.50190126     0.73820
N129        N  0.04190007  0.37624533  0.91052603    -0.44760
C130        C  0.00473391  0.14690502  0.62260577     0.44710
N131        N  0.36984931  0.48863661  0.60077319    -0.44750
Co132      Co  0.05854731  0.43899944  0.50810591     0.73890
C133        C  0.11448666  0.46622521  0.61505386    -0.05080
C134        C  0.05310671  0.10934049  0.89167334    -0.04640
N135        N  0.39351181  0.03167066  0.55153077    -0.24170
N136        N  0.12827957  0.01988961  0.90126163    -0.44930
H137        H  0.08444123  0.12551083  0.61539131     0.08720
C138        C  0.43871346  0.39214988  0.60860485    -0.05050
Cl139      Cl  0.00105047  0.00229392  0.50024330    -0.48060
C140        C  0.50967905  0.35155166  0.87664016     0.44510
H141        H  0.35877305  0.08850423  0.59844356     0.08690
N142        N  0.02897885  0.37773118  0.60895673    -0.44770
C143        C  0.50257373  0.22569176  0.74873966     0.02430
C144        C  0.49601457  0.27368938  0.74888898     0.02430
C145        C  0.27275299  0.50679220  0.74787179     0.02430
C146        C  0.22437285  0.50587082  0.75085492     0.02430
C147        C  0.15483887  0.51918086  0.69193794    -0.14560
C148        C  0.19520498  0.49473286  0.70159335    -0.29740
H149        H  0.15457929  0.03327945  0.71497174     0.14460
H150        H  0.20782383  0.46794872  0.67193401     0.15030
C151        C  0.19912804  0.51486924  0.80452033    -0.14560
C152        C  0.17064454  0.48161597  0.82575356    -0.29740
H153        H  0.21878542  0.02220640  0.83381661     0.14460
H154        H  0.16649280  0.44801200  0.80372322     0.15030
C155        C  0.29944234  0.50116627  0.69473596    -0.14560
C156        C  0.33133226  0.53402066  0.67941594    -0.29740
H157        H  0.29218327  0.47103643  0.66779794     0.14460
H158        H  0.29491307  0.04571161  0.67836189     0.15030
C159        C  0.30109037  0.51408169  0.79830013    -0.14560
C160        C  0.33000001  0.47934560  0.81640626    -0.29740
H161        H  0.29595443  0.54687922  0.82196188     0.14460
H162        H  0.35207591  0.03291533  0.78046310     0.15030
C163        C  0.51316011  0.19958992  0.69658644    -0.14560
C164        C  0.47969591  0.17192909  0.67491487    -0.29740
H165        H  0.05467180  0.21437210  0.67543946     0.14460
H166        H  0.44479493  0.16985419  0.69506551     0.15030
C167        C  0.49615805  0.19714496  0.79998508    -0.14560
C168        C  0.52672850  0.16167174  0.81192153    -0.29740
H169        H  0.46782417  0.20683251  0.82935900     0.14460
H170        H  0.05040214  0.14682642  0.78267434     0.15030
C171        C  0.50232645  0.30255972  0.69790851    -0.14560
C172        C  0.47253415  0.33903798  0.68712324    -0.29740
H173        H  0.04897856  0.29850696  0.67977868     0.14460
H174        H  0.44213511  0.34641357  0.71449578     0.15030
C175        C  0.48482609  0.29946251  0.80103124    -0.14560
C176        C  0.51861497  0.32517070  0.82504489    -0.29740
H177        H  0.44970030  0.29582275  0.82011880     0.14460
H178        H  0.55431144  0.32608451  0.80673906     0.15030
C179        C  0.36841422  0.99873978  0.35756930     0.44330
N180        N  0.40082626  0.97883222  0.43315342     0.03220
C181        C  0.04568904  0.63124051  0.10232251    -0.04660
H182        H  0.07505366  0.63383268  0.39619201     0.08710
C183        C  0.11960395  0.93665048  0.40596281    -0.05010
Co184      Co  0.45162001  0.57453242  0.49610046     0.74180
N185        N  0.01957409  0.59873117  0.44303229    -0.24190
Co186      Co  0.05357595  0.56299382  0.50657195     0.74070
C187        C  0.14302899  0.97401762  0.37490585     0.44430
N188        N  0.01218895  0.89675427  0.44967394     0.02830
N189        N  0.09638708  0.52486704  0.45043734     0.02940
N190        N  0.44560970  0.62068583  0.09735735    -0.45040
H191        H  0.38794101  0.59636538  0.38137609     0.08690
N192        N  0.49602786  0.60079986  0.43384514     0.03220
N193        N  0.09849191  0.52330419  0.06833464     0.02960
C194        C  0.13976006  0.50473176  0.13866463     0.44570
N195        N  0.47258424  0.89989556  0.44491525    -0.23650
C196        C  0.36705037  0.53305739  0.10340654    -0.04570
N197        N  0.37951799  0.96086701  0.38925108    -0.44750
N198        N  0.12517890  0.54153295  0.10761612    -0.44980
C199        C  0.35375143  0.48897612  0.13142339     0.44340
N200        N  0.46564061  0.59549889  0.05648757     0.03210
N201        N  0.46499965  0.91093958  0.06763756    -0.23670
N202        N  0.40994053  0.54068753  0.43696943    -0.24160
N203        N  0.01339271  0.90124777  0.07265528     0.02850
H204        H  0.40464555  0.88871936  0.11736816     0.08740
H205        H  0.12175730  0.92279960  0.12923884     0.08770
N206        N  0.03044722  0.60448671  0.06008785    -0.24210
N207        N  0.09708514  0.95941816  0.44789099    -0.23820
N208        N  0.39884494  0.99267497  0.05624421     0.03210
C209        C  0.52267842  0.63478646  0.36116921     0.44610
C210        C  0.46038639  0.87272218  0.40149940    -0.05070
N211        N  0.09200881  0.97217366  0.07060584    -0.23820
H212        H  0.11893936  0.89871413  0.39768826     0.08760
N213        N  0.48275726  0.62733027  0.39165728    -0.45040
H214        H  0.42461974  0.86806044  0.38642028     0.08750
C215        C  0.98802794  0.86031853  0.14115111     0.44450
C216        C  0.38773729  0.55929832  0.39335933    -0.04570
Co217      Co  0.43527222  0.94690110  0.00131429     0.73820
N218        N  0.02766249  0.86650866  0.41064506    -0.44760
C219        C  0.00224621  0.65250236  0.12681105     0.44710
N220        N  0.36807807  0.97938310  0.09517553    -0.44750
Co221      Co  0.05701364  0.93112119  0.01217687     0.73890
C222        C  0.11637893  0.95897593  0.11525508    -0.05080
C223        C  0.03767626  0.62607821  0.40276725    -0.04640
N224        N  0.39288116  0.51833975  0.05889039    -0.24170
N225        N  0.12351260  0.54318304  0.41089006    -0.44930
H226        H  0.08243722  0.63486903  0.11444718     0.08720
C227        C  0.44282989  0.89025475  0.11040808    -0.05050
Cl228      Cl  0.00178516  0.50594149  0.00279417    -0.48060
C229        C  0.50573627  0.85378832  0.37942182     0.44510
H230        H  0.36029689  0.56969684  0.11579129     0.08690
N231        N  0.02785319  0.87523114  0.11475902    -0.44770
C232        C  0.49773426  0.72528140  0.24816025     0.02430
C233        C  0.49526353  0.77356281  0.25180446     0.02430
C234        C  0.27560345  0.98324810  0.24639490     0.02430
C235        C  0.22725588  0.98702639  0.24905516     0.02430
C236        C  0.16188443  0.01056001  0.18804017    -0.14560
C237        C  0.19847700  0.98112643  0.19869407    -0.29740
H238        H  0.17686292  0.54588743  0.20249197     0.14460
H239        H  0.20830229  0.95292365  0.16940224     0.15030
C240        C  0.20186896  0.99638253  0.30288649    -0.14560
C241        C  0.16695626  0.96776949  0.32060341    -0.29740
H242        H  0.19331486  0.43721334  0.32714127     0.14460
H243        H  0.15763883  0.93683122  0.29588096     0.15030
C244        C  0.30222970  0.98139778  0.19258273    -0.14560
C245        C  0.31972060  0.02123088  0.16953284    -0.29740
H246        H  0.31094163  0.94659531  0.17486119     0.14460
H247        H  0.34881967  0.45461631  0.21227753     0.15030
C248        C  0.30313079  0.97792491  0.29790203    -0.14560
C249        C  0.34599145  0.99738662  0.30367959    -0.29740
H250        H  0.28642768  0.96068647  0.33326995     0.14460
H251        H  0.34061226  0.54996011  0.28931138     0.15030
C252        C  0.50627877  0.70025080  0.19446222    -0.14560
C253        C  0.47463136  0.66847636  0.17642556    -0.29740
H254        H  0.07082580  0.69488546  0.18579365     0.14460
H255        H  0.44179255  0.66293505  0.19996667     0.15030
C256        C  0.49208618  0.69548197  0.29813465    -0.14560
C257        C  0.52535869  0.66266000  0.31025994    -0.29740
H258        H  0.46256850  0.70275626  0.32681740     0.14460
H259        H  0.96294145  0.67063323  0.29701434     0.15030
C260        C  0.50405611  0.80384187  0.20269329    -0.14560
C261        C  0.47517965  0.84092956  0.19214249    -0.29740
H262        H  0.05906251  0.80635323  0.18183137     0.14460
H263        H  0.44403134  0.84803042  0.21846280     0.15030
C264        C  0.48400566  0.79794793  0.30531112    -0.14560
C265        C  0.51523013  0.82813537  0.32718989    -0.29740
H266        H  0.45087086  0.79001801  0.32715461     0.14460
H267        H  0.54977144  0.83295329  0.30697188     0.15030
C268        C  0.36974604  0.00804319  0.86381775     0.44330
N269        N  0.40692322  0.98615869  0.93611942     0.03220
C270        C  0.02088129  0.62698281  0.60542417    -0.04660
H271        H  0.09601609  0.62188630  0.88694093     0.08710
C272        C  0.12357922  0.93983422  0.91019305    -0.05010
Co273      Co  0.42978407  0.55576273  0.99750187     0.74180
N274        N  0.03790185  0.59840940  0.93952293    -0.24190
Co275      Co  0.06899770  0.56130808  0.00372250     0.74070
C276        C  0.14309800  0.97819236  0.87764451     0.44430
N277        N  0.02118861  0.89218592  0.95291915     0.02830
N278        N  0.10564868  0.51617195  0.94768386     0.02940
N279        N  0.48197800  0.63423258  0.59752716    -0.45040
H280        H  0.36222009  0.56564562  0.88415816     0.08690
N281        N  0.46803279  0.59065296  0.93553316     0.03220
N282        N  0.08595382  0.52652004  0.57059820     0.02960
C283        C  0.12666971  0.51112295  0.64223500     0.44570
N284        N  0.47381094  0.90059477  0.94743220    -0.23650
C285        C  0.38488618  0.56784478  0.60002157    -0.04570
N286        N  0.38102163  0.96978475  0.89482535    -0.44750
N287        N  0.10778334  0.54676389  0.61256183    -0.44980
C288        C  0.35954991  0.52974709  0.62796097     0.44340
N289        N  0.49524639  0.60643762  0.55510001     0.03210
N290        N  0.46256408  0.90801919  0.56484903    -0.23670
N291        N  0.39610817  0.51501219  0.93798773    -0.24160
N292        N  0.00625521  0.90595213  0.57023313     0.02850
H293        H  0.40317736  0.88272918  0.61395096     0.08740
H294        H  0.11877183  0.91693088  0.62734575     0.08770
N295        N  0.00941692  0.59929469  0.56252421    -0.24210
N296        N  0.09876053  0.96158486  0.95096668    -0.23820
N297        N  0.39110626  0.98481340  0.55402565     0.03210
C298        C  0.48549490  0.63160981  0.86394366     0.44610
C299        C  0.45988341  0.87124644  0.90649423    -0.05070
N300        N  0.09294464  0.96873672  0.56866594    -0.23820
H301        H  0.12672250  0.90177620  0.90337842     0.08760
N302        N  0.44900091  0.61319412  0.89326428    -0.45040
H303        H  0.42369403  0.86732523  0.89245786     0.08750
C304        C  0.97568993  0.87136751  0.64058920     0.44450
C305        C  0.37025218  0.52910790  0.89494442    -0.04570
Co306      Co  0.43088422  0.94198734  0.49894848     0.73820
N307        N  0.04133470  0.86523104  0.91374340    -0.44760
C308        C  0.97510478  0.64215321  0.62932179     0.44710
N309        N  0.36209667  0.97021653  0.59414120    -0.44750
Co310      Co  0.05299667  0.93163052  0.50941560     0.73890
C311        C  0.11664938  0.95339516  0.61328347    -0.05080
C312        C  0.05816491  0.62022226  0.89616072    -0.04640
N313        N  0.40807862  0.54607752  0.55780355    -0.24170
N314        N  0.13270100  0.52837220  0.90460073    -0.44930
H315        H  0.05668523  0.63495369  0.61836660     0.08720
C316        C  0.44123587  0.88634252  0.60740340    -0.05050
Cl317      Cl  0.99476088  0.49947758  0.50090916    -0.48060
C318        C  0.50376814  0.84601414  0.88807836     0.44510
H319        H  0.38532224  0.60559217  0.60950877     0.08690
N320        N  0.01736679  0.87975828  0.61365965    -0.44770
C321        C  0.49708087  0.72631855  0.75096258     0.02430
C322        C  0.49217811  0.77458583  0.75317147     0.02430
C323        C  0.27777652  0.97907788  0.75270548     0.02430
C324        C  0.22928314  0.98344046  0.75337836     0.02430
C325        C  0.16367937  0.00252102  0.68912688    -0.14560
C326        C  0.20130072  0.97488161  0.70204362    -0.29740
H327        H  0.14443404  0.54895536  0.71872809     0.14460
H328        H  0.21327225  0.94709516  0.67325143     0.15030
C329        C  0.20343672  0.99612382  0.80601482    -0.14560
C330        C  0.16499811  0.97187765  0.82242328    -0.29740
H331        H  0.20655807  0.54704491  0.82801775     0.14460
H332        H  0.15268114  0.94240293  0.79718569     0.15030
C333        C  0.30545692  0.97401517  0.70015514    -0.14560
C334        C  0.31169733  0.01173372  0.66726713    -0.29740
H335        H  0.32501006  0.94092519  0.69204635     0.14460
H336        H  0.33608508  0.56566699  0.70487381     0.15030
C337        C  0.30532901  0.97850500  0.80483836    -0.14560
C338        C  0.34280278  0.00716169  0.81205182    -0.29740
H339        H  0.29314217  0.95608093  0.83855075     0.14460
H340        H  0.33223905  0.44540649  0.79443331     0.15030
C341        C  0.49307346  0.70094369  0.69676074    -0.14560
C342        C  0.52500232  0.66786580  0.67972395    -0.29740
H343        H  0.03241369  0.70695010  0.67452675     0.14460
H344        H  0.55543000  0.65962066  0.70534223     0.15030
C345        C  0.50423713  0.69813927  0.80214822    -0.14560
C346        C  0.47930426  0.65867341  0.81265448    -0.29740
H347        H  0.52912897  0.71109785  0.83257891     0.14460
H348        H  0.05286168  0.66469330  0.78976840     0.15030
C349        C  0.49961580  0.80319143  0.70219958    -0.14560
C350        C  0.47479008  0.84318672  0.69255118    -0.29740
H351        H  0.02383273  0.79344170  0.67123768     0.14460
H352        H  0.44622974  0.85455126  0.72075177     0.15030
C353        C  0.47932951  0.80036424  0.80551616    -0.14560
C354        C  0.51279581  0.81269216  0.84142047    -0.29740
H355        H  0.44308108  0.81397611  0.81080425     0.14460
H356        H  0.54930461  0.80026052  0.83429199     0.15030
C357        C  0.86848338  0.49376978  0.35565329     0.44330
N358        N  0.90338690  0.47385659  0.42984708     0.03220
C359        C  0.55556945  0.12246241  0.09755656    -0.04660
H360        H  0.58015302  0.12684268  0.38251025     0.08710
C361        C  0.61698201  0.43467252  0.39995653    -0.05010
Co362      Co  0.94902967  0.07259704  0.49055504     0.74180
N363        N  0.52572667  0.09520867  0.43471875    -0.24190
Co364      Co  0.55961266  0.05980169  0.49935663     0.74070
C365        C  0.64026049  0.47207599  0.36862779     0.44430
N366        N  0.50962958  0.39715179  0.44703074     0.02830
N367        N  0.59821627  0.01510752  0.44397035     0.02940
N368        N  0.95570797  0.12694240  0.08920770    -0.45040
H369        H  0.89188789  0.08889017  0.37062451     0.08690
N370        N  0.99562303  0.09915952  0.43042322     0.03220
N371        N  0.60160502  0.01657684  0.06514444     0.02960
C372        C  0.63956122  0.99991198  0.13837389     0.44570
N373        N  0.98060996  0.40009109  0.43834835    -0.23650
C374        C  0.86744658  0.05005710  0.08892969    -0.04570
N375        N  0.88339908  0.45589756  0.38509442    -0.44750
N376        N  0.62682655  0.03576928  0.10508147    -0.44980
C377        C  0.84712226  0.01010269  0.11905227     0.44340
N378        N  0.97583740  0.09979238  0.05011878     0.03210
N379        N  0.96493966  0.41287816  0.06426636    -0.23670
N380        N  0.91138295  0.03616211  0.43102199    -0.24160
N381        N  0.51724254  0.40099932  0.06778228     0.02850
H382        H  0.90545920  0.38597309  0.11218850     0.08740
H383        H  0.62595801  0.42858232  0.11982043     0.08770
N384        N  0.53697612  0.09846232  0.05542807    -0.24210
N385        N  0.59520498  0.45750142  0.44243982    -0.23820
N386        N  0.89682307  0.49415713  0.05497804     0.03210
C387        C  0.02550852  0.13420324  0.35988609     0.44610
C388        C  0.97006757  0.37295195  0.39452469    -0.05070
N389        N  0.59101096  0.47762199  0.06485696    -0.23820
H390        H  0.61620786  0.39672947  0.39174026     0.08760
N391        N  0.98411114  0.12517642  0.38700969    -0.45040
H392        H  0.93458339  0.36563991  0.38001133     0.08750
C393        C  0.49380961  0.36158113  0.13803366     0.44450
C394        C  0.89145236  0.05245078  0.38489527    -0.04570
Co395      Co  0.93459086  0.45047275  0.99895077     0.73820
N396        N  0.52455897  0.36598907  0.40890889    -0.44760
C397        C  0.51515490  0.14453251  0.12589776     0.44710
N398        N  0.86629661  0.47987331  0.09368373    -0.44750
Co399      Co  0.55723000  0.43529261  0.00695091     0.73890
C400        C  0.61796034  0.46477195  0.10754435    -0.05080
C401        C  0.54287867  0.12063225  0.39194903    -0.04640
N402        N  0.89683513  0.02984537  0.05085505    -0.24170
N403        N  0.62434911  0.02744339  0.40008158    -0.44930
H404        H  0.59283932  0.12308034  0.10829889     0.08720
C405        C  0.94355388  0.38926986  0.10559229    -0.05050
Cl406      Cl  0.50368077  0.00047845  0.00210080    -0.48060
C407        C  0.01632583  0.35731466  0.37214298     0.44510
H408        H  0.86118942  0.08791231  0.09479210     0.08690
N409        N  0.53311293  0.37806086  0.11162317    -0.44770
C410        C  0.00716365  0.22590984  0.24523201     0.02430
C411        C  0.00405279  0.27428283  0.24743607     0.02430
C412        C  0.77324585  0.48442350  0.24480628     0.02430
C413        C  0.72492512  0.48968356  0.24489977     0.02430
C414        C  0.66268341  0.51644291  0.18072018    -0.14560
C415        C  0.69758855  0.48531574  0.19308957    -0.29740
H416        H  0.66104851  0.03989962  0.21223040     0.14460
H417        H  0.70667554  0.45630001  0.16460115     0.15030
C418        C  0.69761475  0.49812495  0.29731902    -0.14560
C419        C  0.66598746  0.46616344  0.31549547    -0.29740
H420        H  0.72312298  0.01949897  0.33777382     0.14460
H421        H  0.66049520  0.43361434  0.29187916     0.15030
C422        C  0.80103604  0.48139649  0.19202359    -0.14560
C423        C  0.81664164  0.52117372  0.16749534    -0.29740
H424        H  0.81211403  0.44643649  0.17657050     0.14460
H425        H  0.80008199  0.04766665  0.17960831     0.15030
C426        C  0.79960105  0.48111616  0.29777054    -0.14560
C427        C  0.84593430  0.49174130  0.30165088    -0.29740
H428        H  0.78021597  0.47154455  0.33530173     0.14460
H429        H  0.85001991  0.03624218  0.27841066     0.15030
C430        C  0.01678612  0.20033943  0.19215352    -0.14560
C431        C  0.98381030  0.17144280  0.17121253    -0.29740
H432        H  0.49385318  0.23110430  0.16332951     0.14460
H433        H  0.94933132  0.16845637  0.19212425     0.15030
C434        C  0.99959786  0.19668740  0.29567571    -0.14560
C435        C  0.03062782  0.16194718  0.30881798    -0.29740
H436        H  0.97006529  0.20557138  0.32375203     0.14460
H437        H  0.46407933  0.16134014  0.28843681     0.15030
C438        C  0.01009522  0.30388366  0.19710712    -0.14560
C439        C  0.97836083  0.33858131  0.18582730    -0.29740
H440        H  0.56243426  0.30665744  0.18078195     0.14460
H441        H  0.94689616  0.34366168  0.21221729     0.15030
C442        C  0.99408215  0.29970158  0.30043917    -0.14560
C443        C  0.02615026  0.32968535  0.32131274    -0.29740
H444        H  0.96065760  0.29320703  0.32236964     0.14460
H445        H  0.06075969  0.33346317  0.30093653     0.15030
C446        C  0.87033652  0.51499115  0.86194613     0.44330
N447        N  0.90586675  0.49081598  0.93432112     0.03220
C448        C  0.53223666  0.12827982  0.59811450    -0.04660
H449        H  0.59991665  0.11166609  0.88212942     0.08710
C450        C  0.62102270  0.45055181  0.90512558    -0.05010
Co451      Co  0.93995592  0.06134439  0.99010602     0.74180
N452        N  0.54144868  0.09048386  0.93547411    -0.24190
Co453      Co  0.57241986  0.05352655  0.99976723     0.74070
C454        C  0.63731195  0.49034455  0.87299426     0.44430
N455        N  0.52318235  0.39515542  0.94719154     0.02830
N456        N  0.60674453  0.00642425  0.94493577     0.02940
N457        N  0.96883859  0.13352546  0.59028916    -0.45040
H458        H  0.87575609  0.06975726  0.87245254     0.08690
N459        N  0.98497719  0.09160498  0.92955518     0.03220
N460        N  0.59118906  0.02407908  0.56508196     0.02960
C461        C  0.63160901  0.00888970  0.63729543     0.44570
N462        N  0.97471577  0.40755428  0.94355736    -0.23650
C463        C  0.87867970  0.06727803  0.59220684    -0.04570
N464        N  0.88120077  0.47556397  0.89136048    -0.44750
N465        N  0.61558185  0.04439148  0.60510621    -0.44980
C466        C  0.85494657  0.02912459  0.62197971     0.44340
N467        N  0.98778199  0.10670738  0.55039087     0.03210
N468        N  0.96885583  0.40107091  0.55790605    -0.23670
N469        N  0.90530633  0.02028723  0.93118714    -0.24160
N470        N  0.50644434  0.40431182  0.56705192     0.02850
H471        H  0.91109433  0.36935541  0.60427143     0.08740
H472        H  0.61063469  0.41552176  0.62819314     0.08770
N473        N  0.51888335  0.10128744  0.55516734    -0.24210
N474        N  0.59448944  0.47023186  0.94567785    -0.23820
N475        N  0.89271055  0.47313587  0.55035320     0.03210
C476        C  0.01424104  0.12920069  0.86039792     0.44610
C477        C  0.96210680  0.38157555  0.89915411    -0.05070
N478        N  0.59314278  0.46593018  0.56407052    -0.23820
H479        H  0.62781867  0.41285839  0.89874803     0.08760
N480        N  0.97270164  0.11717468  0.88587846    -0.45040
H481        H  0.92642394  0.37862392  0.88323334     0.08750
C482        C  0.47724407  0.36783918  0.63688913     0.44450
C483        C  0.88098145  0.03355000  0.88640180    -0.04570
Co484      Co  0.93558134  0.43624633  0.49366907     0.73820
N485        N  0.54458948  0.37008276  0.90723629    -0.44760
C486        C  0.48736976  0.14545402  0.62312661     0.44710
N487        N  0.86829249  0.45351560  0.59129494    -0.44750
Co488      Co  0.55198751  0.43026708  0.50550828     0.73890
C489        C  0.61272050  0.45107763  0.61143100    -0.05080
C490        C  0.56207687  0.11133061  0.89173345    -0.04640
N491        N  0.90361182  0.04504347  0.55153124    -0.24170
N492        N  0.63387589  0.01768737  0.90172205    -0.44930
H493        H  0.56849589  0.13369985  0.61119010     0.08720
C494        C  0.94878928  0.37603080  0.59869016    -0.05050
Cl495      Cl  0.49547410  0.00059658  0.50052655    -0.48060
C496        C  0.00708402  0.36093876  0.87762581     0.44510
H497        H  0.87755649  0.10526715  0.60021433     0.08690
N498        N  0.51830032  0.37669169  0.60898726    -0.44770
C499        C  0.00838074  0.22724626  0.75087825     0.02430
C500        C  0.00532196  0.27573658  0.75323471     0.02430
C501        C  0.77302924  0.50945576  0.75214381     0.02430
C502        C  0.72467905  0.50645889  0.75150310     0.02430
C503        C  0.65382756  0.50112136  0.68993729    -0.14560
C504        C  0.70043755  0.49409143  0.69855859    -0.29740
H505        H  0.65250011  0.04906284  0.71130417     0.14460
H506        H  0.72190550  0.47929695  0.66454454     0.15030
C507        C  0.69639821  0.51529678  0.80333594    -0.14560
C508        C  0.66252792  0.48528989  0.81968010    -0.29740
H509        H  0.70618082  0.03772746  0.82835367     0.14460
H510        H  0.65630759  0.45315835  0.79556513     0.15030
C511        C  0.79962690  0.51773309  0.69967458    -0.14560
C512        C  0.82433374  0.48257462  0.67453118    -0.29740
H513        H  0.79572622  0.55225407  0.68012852     0.14460
H514        H  0.83063071  0.06643265  0.69792708     0.15030
C515        C  0.79997474  0.50411533  0.80464525    -0.14560
C516        C  0.84584128  0.51658093  0.80891475    -0.29740
H517        H  0.78173936  0.49003099  0.84090941     0.14460
H518        H  0.83995836  0.94783131  0.79067351     0.15030
C519        C  0.02337482  0.20256030  0.69838479    -0.14560
C520        C  0.99569823  0.16883984  0.67706155    -0.29740
H521        H  0.54715080  0.20474950  0.67532437     0.14460
H522        H  0.96216097  0.16045657  0.69786486     0.15030
C523        C  0.99591033  0.19719229  0.79978333    -0.14560
C524        C  0.02041263  0.15685035  0.80956646    -0.29740
H525        H  0.96897710  0.20932848  0.82965250     0.14460
H526        H  0.55740766  0.15455603  0.78487908     0.15030
C527        C  0.01623359  0.30496622  0.70350166    -0.14560
C528        C  0.98326373  0.33542632  0.68480444    -0.29740
H529        H  0.53032860  0.29279433  0.66814956     0.14460
H530        H  0.94897230  0.33846441  0.70636112     0.15030
C531        C  0.99004417  0.30159274  0.80476202    -0.14560
C532        C  0.01740010  0.33620145  0.82493765    -0.29740
H533        H  0.95815488  0.29087929  0.82734515     0.14460
H534        H  0.05124462  0.34383014  0.80439757     0.15030
C535        C  0.86894727  0.01097263  0.36100918     0.44330
N536        N  0.90310732  0.99009897  0.43536514     0.03220
C537        C  0.52615690  0.62654703  0.09724079    -0.04660
H538        H  0.59958174  0.60930063  0.37644248     0.08710
C539        C  0.62173609  0.94727590  0.40915194    -0.05010
Co540      Co  0.93103558  0.55987112  0.49530494     0.74180
N541        N  0.54219974  0.59087373  0.43284193    -0.24190
Co542      Co  0.57321048  0.55157092  0.49537110     0.74070
C543        C  0.64067688  0.98612213  0.37681827     0.44430
N544        N  0.51939307  0.89766305  0.44998450     0.02830
N545        N  0.60338714  0.50360967  0.43818938     0.02940
N546        N  0.96515770  0.63666187  0.09731650    -0.45040
H547        H  0.87450177  0.57366824  0.37497873     0.08690
N548        N  0.97272679  0.59769189  0.43857858     0.03220
N549        N  0.58999086  0.52465064  0.06169974     0.02960
C550        C  0.63329847  0.50971588  0.13160526     0.44570
N551        N  0.96577763  0.90498489  0.44714507    -0.23650
C552        C  0.87312662  0.56027863  0.09383099    -0.04570
N553        N  0.87732637  0.97346204  0.39424270    -0.44750
N554        N  0.61447000  0.54535609  0.10148981    -0.44980
C555        C  0.84989765  0.51972042  0.11967377     0.44340
N556        N  0.98349352  0.60839742  0.05805378     0.03210
N557        N  0.96641691  0.90388300  0.06929366    -0.23670
N558        N  0.90195055  0.52094487  0.43112308    -0.24160
N559        N  0.51161866  0.90500788  0.07254866     0.02850
H560        H  0.90945446  0.87386011  0.11885248     0.08740
H561        H  0.62215115  0.91992316  0.13086832     0.08770
N562        N  0.51272660  0.59788078  0.05574305    -0.24210
N563        N  0.59606102  0.96833356  0.44973484    -0.23820
N564        N  0.89502902  0.98302879  0.05611866     0.03210
C565        C  0.99620349  0.64181964  0.37178082     0.44610
C566        C  0.94795859  0.87958129  0.40546069    -0.05070
N567        N  0.59626282  0.97017568  0.07059881    -0.23820
H568        H  0.62580284  0.90929621  0.40227746     0.08760
N569        N  0.95725360  0.62277181  0.39615383    -0.45040
H570        H  0.91103707  0.87932058  0.39316828     0.08750
C571        C  0.48113482  0.86962118  0.14226250     0.44450
C572        C  0.88066428  0.53675164  0.38561497    -0.04570
Co573      Co  0.93393493  0.93809473  0.00267957     0.73820
N574        N  0.54053830  0.87103072  0.41118029    -0.44760
C575        C  0.48148233  0.64149017  0.12454202     0.44710
N576        N  0.86580795  0.96964845  0.09660057    -0.44750
Co577      Co  0.55805140  0.93165160  0.01231160     0.73890
C578        C  0.61965880  0.95604898  0.11577279    -0.05080
C579        C  0.56213377  0.61075127  0.38803691    -0.04640
N580        N  0.90162188  0.54095706  0.05431316    -0.24170
N581        N  0.63043026  0.51397971  0.39451752    -0.44930
H582        H  0.56252606  0.63472689  0.10777592     0.08720
C583        C  0.94716192  0.87937947  0.11144946    -0.05050
Cl584      Cl  0.49396149  0.49591301  0.00072817    -0.48060
C585        C  0.98882905  0.85426110  0.38150743     0.44510
H586        H  0.86894449  0.59794026  0.10293248     0.08690
N587        N  0.52294652  0.87969358  0.11654780    -0.44770
C588        C  0.02972582  0.72757001  0.25518650     0.02430
C589        C  0.02601222  0.77586488  0.25720682     0.02430
C590        C  0.77783124  0.98013972  0.25166604     0.02430
C591        C  0.72952029  0.98479597  0.25419744     0.02430
C592        C  0.66677279  0.00695886  0.18894630    -0.14560
C593        C  0.70096551  0.97623905  0.20390129    -0.29740
H594        H  0.65618946  0.54779829  0.20656746     0.14460
H595        H  0.70991300  0.94573696  0.17752190     0.15030
C596        C  0.70456773  0.99804648  0.30751084    -0.14560
C597        C  0.66180563  0.98030736  0.32111572    -0.29740
H598        H  0.70623233  0.52885951  0.32274781     0.14460
H599        H  0.64502832  0.95507549  0.29348301     0.15030
C600        C  0.80452165  0.97467084  0.19839303    -0.14560
C601        C  0.81430025  0.01286863  0.16729518    -0.29740
H602        H  0.82088643  0.94025571  0.18853711     0.14460
H603        H  0.80658834  0.55581405  0.18482470     0.15030
C604        C  0.80624209  0.97938178  0.30261144    -0.14560
C605        C  0.84216223  0.00969266  0.30961081    -0.29740
H606        H  0.79547014  0.95588749  0.33597361     0.14460
H607        H  0.86612107  0.50450797  0.26621137     0.15030
C608        C  0.03495480  0.70122520  0.20208826    -0.14560
C609        C  0.99711433  0.68302798  0.17655709    -0.29740
H610        H  0.53762248  0.70864795  0.16952236     0.14460
H611        H  0.96141573  0.69012453  0.19313898     0.15030
C612        C  0.03152497  0.69902315  0.30643601    -0.14560
C613        C  0.99503489  0.67114714  0.32155394    -0.29740
H614        H  0.06251746  0.70226016  0.33247138     0.14460
H615        H  0.55672891  0.65801602  0.28361105     0.15030
C616        C  0.02610555  0.80482142  0.20604407    -0.14560
C617        C  0.98708637  0.82893813  0.18979369    -0.29740
H618        H  0.53264634  0.79426771  0.17362074     0.14460
H619        H  0.95345403  0.82508609  0.21210947     0.15030
C620        C  0.02693366  0.80181715  0.31086693    -0.14560
C621        C  0.98849026  0.82572621  0.33025456    -0.29740
H622        H  0.05953511  0.80075784  0.33450925     0.14460
H623        H  0.95534809  0.82451317  0.30778327     0.15030
C624        C  0.86404917  0.98890409  0.86273146     0.44330
N625        N  0.90343688  0.97339549  0.93567807     0.03220
C626        C  0.56166828  0.62026055  0.59629269    -0.04660
H627        H  0.56623001  0.62604577  0.88049077     0.08710
C628        C  0.62549007  0.93773904  0.90892491    -0.05010
Co629      Co  0.94618113  0.57364336  0.99632150     0.74180
N630        N  0.51518688  0.59227585  0.93525310    -0.24190
Co631      Co  0.55398139  0.55906210  0.99782491     0.74070
C632        C  0.64694911  0.97600235  0.87729104     0.44430
N633        N  0.52022294  0.89451275  0.95360130     0.02830
N634        N  0.59376327  0.51708053  0.94026936     0.02940
N635        N  0.94041646  0.62252512  0.59898596    -0.45040
H636        H  0.88840230  0.59310092  0.87903199     0.08690
N637        N  0.99118805  0.60442090  0.93755826     0.03220
N638        N  0.60181618  0.51183255  0.55860430     0.02960
C639        C  0.63461542  0.49370317  0.63465943     0.44570
N640        N  0.97433820  0.89489704  0.94903455    -0.23650
C641        C  0.86366762  0.53407230  0.59523571    -0.04570
N642        N  0.87940246  0.95322861  0.89521681    -0.44750
N643        N  0.62597105  0.52979186  0.60010809    -0.44980
C644        C  0.84889835  0.48956522  0.62121955     0.44340
N645        N  0.96251665  0.59754276  0.55930261     0.03210
N646        N  0.95984224  0.91431286  0.56699183    -0.23670
N647        N  0.91104333  0.53759607  0.93433771    -0.24160
N648        N  0.50937605  0.90530582  0.57040206     0.02850
H649        H  0.89958073  0.89433448  0.61822693     0.08740
H650        H  0.62024887  0.92792396  0.62782804     0.08770
N651        N  0.54164546  0.59765831  0.55373070    -0.24210
N652        N  0.60138810  0.95995647  0.95015661    -0.23820
N653        N  0.89649597  0.99877931  0.55542410     0.03210
C654        C  0.01826377  0.64116246  0.86691205     0.44610
C655        C  0.96097566  0.86810881  0.90596581    -0.05070
N656        N  0.58938389  0.97719363  0.56964988    -0.23820
H657        H  0.62712136  0.89967924  0.90148699     0.08760
N658        N  0.97781793  0.63008097  0.89468720    -0.45040
H659        H  0.92486937  0.86420167  0.89168711     0.08750
C660        C  0.48017874  0.86877260  0.64026275     0.44450
C661        C  0.89020933  0.55578634  0.88982838    -0.04570
Co662      Co  0.93046992  0.95140939  0.50128841     0.73820
N663        N  0.53926018  0.86245561  0.91921846    -0.44760
C664        C  0.52230781  0.64424707  0.62515587     0.44710
N665        N  0.86760106  0.98760104  0.59707528    -0.44750
Co666      Co  0.55437466  0.93620802  0.51062598     0.73890
C667        C  0.61452319  0.96408883  0.61398365    -0.05080
C668        C  0.52963540  0.61809943  0.89159170    -0.04640
N669        N  0.89115552  0.52017238  0.55188018    -0.24170
N670        N  0.61926757  0.53095397  0.89653000    -0.44930
H671        H  0.59904400  0.61922299  0.60659693     0.08720
C672        C  0.93767595  0.89423559  0.61019464    -0.05050
Cl673      Cl  0.50157425  0.50220127  0.49962994    -0.48060
C674        C  0.00564949  0.84873437  0.88277789     0.44510
H675        H  0.85678272  0.57053034  0.60822665     0.08690
N676        N  0.52168292  0.88140124  0.61521609    -0.44770
C677        C  0.99116476  0.72754068  0.75023881     0.02430
C678        C  0.98817303  0.77577586  0.75158697     0.02430
C679        C  0.77388558  0.00360632  0.74649323     0.02430
C680        C  0.72569341  0.99929802  0.75020884     0.02430
C681        C  0.65983050  0.01682519  0.68723544    -0.14560
C682        C  0.69661406  0.98838495  0.70076593    -0.29740
H683        H  0.63091712  0.51814727  0.72105001     0.14460
H684        H  0.70699470  0.95862756  0.67395357     0.15030
C685        C  0.70026887  0.00562564  0.80408096    -0.14560
C686        C  0.67252641  0.97103030  0.82408380    -0.29740
H687        H  0.70620636  0.54469966  0.83024310     0.14460
H688        H  0.66950918  0.93761462  0.80140838     0.15030
C689        C  0.79962793  0.99855125  0.69270763    -0.14560
C690        C  0.82783678  0.03349846  0.67427583    -0.29740
H691        H  0.79421252  0.96684523  0.66758434     0.14460
H692        H  0.82534380  0.44731838  0.69284407     0.15030
C693        C  0.80286435  0.01338196  0.79620579    -0.14560
C694        C  0.83572319  0.98157793  0.81273657    -0.29740
H695        H  0.79540741  0.04538833  0.82061155     0.14460
H696        H  0.86412643  0.53392994  0.77481129     0.15030
C697        C  0.99957791  0.70110553  0.69789135    -0.14560
C698        C  0.96669641  0.67090128  0.67939889    -0.29740
H699        H  0.46495203  0.71202442  0.66907640     0.14460
H700        H  0.93266424  0.66771090  0.70123260     0.15030
C701        C  0.98622128  0.69915555  0.80141158    -0.14560
C702        C  0.02079403  0.66833998  0.81546024    -0.29740
H703        H  0.95591257  0.70588423  0.82915037     0.14460
H704        H  0.45115619  0.64803827  0.78497758     0.15030
C705        C  0.99671212  0.80486137  0.70132050    -0.14560
C706        C  0.96962299  0.84340623  0.69115986    -0.29740
H707        H  0.52489278  0.79000020  0.67086979     0.14460
H708        H  0.93972447  0.85256377  0.71858988     0.15030
C709        C  0.97819649  0.80116256  0.80436271    -0.14560
C710        C  0.01357936  0.82277681  0.83059644    -0.29740
H711        H  0.94234192  0.80040492  0.82210153     0.14460
H712        H  0.04969638  0.82086205  0.81346852     0.15030
loop_ 
_geom_bond_atom_site_label_1 
_geom_bond_atom_site_label_2 
_geom_bond_distance 
_geom_bond_site_symmetry_2 
_ccdc_geom_bond_type 
C1           N19   1.352       .  A
C1           C71   1.476       .  S
C1          C216   1.454       .  S
N2           N19   1.328       .  A
N2          N202   1.322       .  A
N2         Co128   2.095       .  S
C3           N28   1.344       .  A
C3           C41   1.461   1_455  S
C3           H48   1.081       .  S
H4           C45   1.081       .  S
C5           N29   1.339       .  A
C5            C9   1.458       .  S
C5           H34   1.081       .  S
Co6          N24   2.063       .  S
Co6          N14   2.066       .  S
Co6         N135   2.076       .  S
Co6         N111   2.070       .  S
Co6        Cl495   2.440       .  S
N7           C45   1.341       .  A
N7          N370   1.320   1_455  A
N7           Co8   2.084       .  S
Co8          N11   2.104       .  S
Co8         N117   2.108       .  S
Co8         N104   2.081       .  S
Co8        Cl139   2.451       .  S
C9          N225   1.346       .  A
C9           C63   1.464       .  S
N10          N40   1.325       .  A
N10         N373   1.320   1_455  A
N10        Co132   2.092       .  S
N11          N47   1.329       .  A
N11         N207   1.322   1_545  A
N12         C397   1.358       .  A
N12          N22   1.331       .  A
H13          C38   1.081       .  S
N14          N35   1.320       .  A
N14         N363   1.319       .  A
N15          N20   1.323       .  A
N15         N211   1.320   1_545  A
N15         Co97   2.077   1_554  S
C16          N20   1.345       .  A
C16         C236   1.464       .  S
C16         C222   1.458   1_545  S
N17          C32   1.342       .  A
N17         N366   1.321       .  A
N17        Co128   2.092       .  S
C18          N46   1.345       .  A
C18          C21   1.462       .  S
C18          H52   1.081       .  S
C21         N220   1.348   1_545  A
C21         C245   1.478       .  S
N22         N384   1.320       .  A
N22         Co95   2.110   1_554  S
N23          C49   1.336       .  A
N23         N381   1.319       .  A
N23         Co39   2.071       .  S
N24          C38   1.335       .  A
N24         N180   1.319   1_545  A
N25          N53   1.326       .  A
N25         N379   1.322   1_455  A
N25         Co43   2.082       .  S
H26          C49   1.081       .  S
H27          C44   1.081       .  S
N28         N378   1.321   1_455  A
N28         Co97   2.094   1_554  S
N29         N189   1.320       .  A
N29        Co132   2.079       .  S
N30          N42   1.320       .  A
N30         N224   1.319       .  A
N30         Co39   2.066       .  S
C31          N35   1.340       .  A
C31          C79   1.467       .  S
C31         C401   1.467       .  S
C32          C51   1.459       .  S
C32          H36   1.081       .  S
N33          C44   1.344       .  A
N33         N193   1.320       .  A
N33         Co43   2.093       .  S
C37          N53   1.349   1_655  A
C37         C439   1.469       .  S
C37         C405   1.455       .  S
C38         C179   1.442   1_545  S
Co39         N91   2.081   1_554  S
Co39        N106   2.070   1_554  S
Co39       Cl584   2.451       .  S
N40         C407   1.349       .  A
C41         N368   1.346       .  A
C41         C431   1.470       .  S
N42         C199   1.340       .  A
Co43         N99   2.078   1_554  S
Co43        N118   2.070   1_554  S
Co43       Cl228   2.450       .  S
C44         C194   1.465       .  S
C45         C387   1.454       .  S
N46         N208   1.321   1_545  A
N46         Co95   2.096   1_554  S
N47         C187   1.353   1_545  A
C49         C393   1.445       .  S
Cl50       Co451   2.459   1_564  S
Cl50        Co97   2.449   1_664  S
Cl50       Co573   2.447       .  S
Cl50       Co221   2.457   1_655  S
C51         N396   1.348       .  A
C51          C87   1.473       .  S
C54          C55   1.358       .  D
C54          C74   1.505       .  S
C54          C78   1.490       .  S
C55          C82   1.475       .  S
C55          C86   1.482       .  S
C56          C57   1.357       .  D
C56          C66   1.486       .  S
C56          C70   1.497       .  S
C57          C59   1.481       .  S
C57          C62   1.470       .  S
C58         C194   1.472       .  S
C58          C59   1.338       .  D
C58         H238   1.087       .  S
C59          H61   1.085       .  S
H60         C236   1.086       .  S
C62          C63   1.338       .  D
C62         H242   1.085       .  S
C63          H65   1.087       .  S
H64         C240   1.087   1_545  S
C66          C67   1.334       .  D
C66          H68   1.087       .  S
C67         C199   1.463       .  S
C67         H247   1.087       .  S
H69         C245   1.086       .  S
C70          C71   1.343       .  D
C70          H72   1.087       .  S
C71         H251   1.086       .  S
H73         C249   1.085   1_545  S
C74          C75   1.340       .  D
C74         H432   1.087       .  S
C75         C397   1.470       .  S
C75          H77   1.085       .  S
H76         C430   1.086       .  S
C78          C79   1.336       .  D
C78          H80   1.087       .  S
C79         H437   1.087       .  S
H81         C435   1.087       .  S
C82          C83   1.333       .  D
C82         H440   1.086       .  S
C83         C393   1.462       .  S
C83          H85   1.086       .  S
H84         C438   1.087       .  S
C86          C87   1.344       .  D
C86          H88   1.086       .  S
C87          H89   1.086       .  S
C90         N108   1.349       .  A
C90         C160   1.468       .  S
C90         C305   1.456       .  S
N91         N108   1.325       .  A
N91         N291   1.319       .  A
C92         N117   1.349       .  A
C92         C130   1.467       .  S
C92         H137   1.081       .  S
H93         C134   1.081       .  S
C94         N118   1.336       .  A
C94          C98   1.446       .  S
C94         H123   1.081       .  S
Co95        N113   2.098       .  S
Co95        N103   2.096       .  S
Co95       Cl406   2.458   1_556  S
N96         C134   1.335       .  A
N96         N459   1.321   1_455  A
N96         Co97   2.066       .  S
Co97        N100   2.103       .  S
C98         N314   1.353       .  A
C98         C152   1.466       .  S
N99         N462   1.320   1_455  A
N99         N129   1.321       .  A
N100        N296   1.319   1_545  A
N100        N136   1.330       .  A
N101        C486   1.344       .  A
N101        N111   1.321       .  A
H102        C127   1.081       .  S
N103        N452   1.320       .  A
N103        N124   1.327       .  A
N104        N300   1.322   1_545  A
N104        N109   1.324       .  A
C105        N109   1.345   1_565  A
C105        C325   1.477   1_565  S
C105        C311   1.466       .  S
N106        C121   1.340       .  A
N106        N455   1.318       .  A
C107        N135   1.340       .  A
C107        C110   1.454       .  S
C107        H141   1.081       .  S
C110        N309   1.350   1_545  A
C110        C334   1.471       .  S
N111        N473   1.321       .  A
N112        C138   1.340       .  A
N112        N470   1.321       .  A
N112       Co128   2.089       .  S
N113        C127   1.341       .  A
N113        N269   1.323   1_545  A
N114        N468   1.321   1_455  A
N114        N142   1.330       .  A
N114       Co132   2.099       .  S
H115        C138   1.081       .  S
H116        C133   1.081       .  S
N117        N467   1.320   1_455  A
N118        N278   1.319       .  A
N119        N131   1.324       .  A
N119        N313   1.321       .  A
N119       Co128   2.082       .  S
C120        N124   1.351       .  A
C120        C168   1.471       .  S
C120        C490   1.452       .  S
C121        C140   1.459       .  S
C121        H125   1.081       .  S
N122        C133   1.345       .  A
N122        N282   1.321       .  A
N122       Co132   2.092       .  S
C126        N142   1.354   1_655  A
C126        C528   1.469       .  S
C126        C494   1.446       .  S
C127        C268   1.455       .  S
Co128      Cl673   2.452       .  S
N129        C496   1.342       .  A
C130        N457   1.340   1_455  A
C130        C520   1.466   1_455  S
N131        C288   1.348       .  A
Co132      Cl317   2.457   1_455  S
C133        C283   1.462       .  S
C134        C476   1.445       .  S
N135        N297   1.318   1_545  A
N136        C276   1.354   1_545  A
C138        C482   1.454       .  S
Cl139      Co362   2.452   1_455  S
Cl139      Co662   2.452   1_445  S
Cl139      Co310   2.457   1_545  S
C140        N485   1.344       .  A
C140        C176   1.462       .  S
C143        C144   1.356       .  D
C143        C163   1.478       .  S
C143        C167   1.491       .  S
C144        C171   1.490       .  S
C144        C175   1.476       .  S
C145        C146   1.356       .  D
C145        C155   1.483       .  S
C145        C159   1.482       .  S
C146        C148   1.490       .  S
C146        C151   1.486       .  S
C147        C283   1.468       .  S
C147        C148   1.340       .  D
C147        H327   1.087       .  S
C148        H150   1.086       .  S
H149        C325   1.086       .  S
C151        C152   1.335       .  D
C151        H331   1.087       .  S
C152        H154   1.087       .  S
H153        C329   1.087   1_545  S
C155        C156   1.341       .  D
C155        H157   1.086       .  S
C156        C288   1.467       .  S
C156        H336   1.087       .  S
H158        C334   1.087       .  S
C159        C160   1.340       .  D
C159        H161   1.086       .  S
C160        H340   1.087       .  S
H162        C338   1.086       .  S
C163        C164   1.335       .  D
C163        H521   1.086       .  S
C164        C486   1.463       .  S
C164        H166   1.087       .  S
H165        C519   1.086       .  S
C167        C168   1.341       .  D
C167        H169   1.087       .  S
C168        H526   1.087       .  S
H170        C524   1.086       .  S
C171        C172   1.342       .  D
C171        H529   1.087       .  S
C172        C482   1.470       .  S
C172        H174   1.086       .  S
H173        C527   1.086       .  S
C175        C176   1.335       .  D
C175        H177   1.086       .  S
C176        H178   1.087       .  S
C179        N197   1.351       .  A
C179        C249   1.458       .  S
N180        N197   1.327       .  A
N180       Co306   2.089       .  S
C181        N206   1.342       .  A
C181        C219   1.462       .  S
C181        H226   1.081       .  S
H182        C223   1.081       .  S
C183        N207   1.339       .  A
C183        C187   1.451       .  S
C183        H212   1.081       .  S
Co184       N202   2.092       .  S
Co184       N192   2.082       .  S
Co184       N313   2.082       .  S
Co184       N289   2.097       .  S
Co184      Cl673   2.453       .  S
N185        C223   1.341       .  A
N185        N548   1.319   1_455  A
N185       Co186   2.081       .  S
Co186       N189   2.077       .  S
Co186       N295   2.071       .  S
Co186       N282   2.079       .  S
Co186      Cl317   2.445   1_455  S
C187        C241   1.473       .  S
N188        N551   1.320   1_455  A
N188        N218   1.328       .  A
N188       Co310   2.101       .  S
N189        N225   1.323       .  A
N190        C575   1.347       .  A
N190        N200   1.323       .  A
H191        C216   1.081       .  S
N192        N541   1.319       .  A
N192        N213   1.324       .  A
N193        N198   1.323       .  A
N193       Co275   2.077       .  S
C194        N198   1.345       .  A
N195        C210   1.344       .  A
N195        N544   1.320       .  A
N195       Co306   2.087       .  S
C196        N224   1.346       .  A
C196        C199   1.464       .  S
C196        H230   1.081       .  S
N200        N562   1.321       .  A
N200       Co273   2.083   1_554  S
N201        C227   1.338       .  A
N201        N559   1.322       .  A
N201       Co217   2.083       .  S
N202        C216   1.341       .  A
N203        N557   1.321   1_455  A
N203        N231   1.324       .  A
N203       Co221   2.078       .  S
H204        C227   1.081       .  S
H205        C222   1.081       .  S
N206        N556   1.320   1_455  A
N206       Co275   2.093       .  S
N207       Co310   2.080       .  S
N208        N220   1.325       .  A
N208       Co217   2.085       .  S
C209        N213   1.348       .  A
C209        C257   1.466       .  S
C209        C579   1.453       .  S
C210        C229   1.462       .  S
C210        H214   1.081       .  S
N211        C222   1.341       .  A
N211       Co221   2.082       .  S
C215        N231   1.348   1_655  A
C215        C617   1.476       .  S
C215        C583   1.460       .  S
Co217       N269   2.094   1_554  S
Co217       N284   2.107   1_554  S
Co217      Cl406   2.449   1_565  S
N218        C585   1.353   1_455  A
C219        N546   1.348   1_455  A
C219        C609   1.475   1_455  S
Co221       N277   2.075   1_554  S
Co221       N296   2.068   1_554  S
C223        C565   1.460   1_455  S
N224       Co273   2.092   1_554  S
C227        C571   1.450       .  S
Cl228      Co629   2.448   1_454  S
Cl228      Co275   2.455       .  S
Cl228      Co395   2.459   1_454  S
C229        N574   1.344       .  A
C229        C265   1.468       .  S
C232        C233   1.357       .  D
C232        C252   1.486       .  S
C232        C256   1.483       .  S
C233        C260   1.485       .  S
C233        C264   1.487       .  S
C234        C235   1.357       .  D
C234        C244   1.490       .  S
C234        C248   1.485       .  S
C235        C237   1.482       .  S
C235        C240   1.493       .  S
C236        C237   1.338   1_545  D
C237        H239   1.087       .  S
C240        C241   1.339       .  D
C241        H243   1.087       .  S
C244        C245   1.346   1_565  D
C244        H246   1.086       .  S
C248        C249   1.334       .  D
C248        H250   1.088       .  S
C252        C253   1.340       .  D
C252        H610   1.086       .  S
C253        C575   1.469       .  S
C253        H255   1.087       .  S
H254        C608   1.085       .  S
C256        C257   1.340       .  D
C256        H258   1.087       .  S
C257        H615   1.087       .  S
H259        C613   1.086       .  S
C260        C261   1.339       .  D
C260        H618   1.086       .  S
C261        C571   1.464       .  S
C261        H263   1.087       .  S
H262        C616   1.086       .  S
C264        C265   1.337       .  D
C264        H266   1.086       .  S
C265        H267   1.087       .  S
C268        N286   1.352   1_545  A
C268        C338   1.474       .  S
N269        N286   1.327       .  A
C270        N295   1.337       .  A
C270        C308   1.455   1_455  S
C270        H315   1.081       .  S
H271        C312   1.081       .  S
C272        N296   1.336       .  A
C272        C276   1.445       .  S
C272        H301   1.081       .  S
Co273       N291   2.078       .  S
Co273       N281   2.085       .  S
Co273      Cl584   2.447   1_556  S
N274        C312   1.340       .  A
N274        N637   1.319   1_455  A
N274       Co275   2.075   1_556  S
Co275       N278   2.094   1_554  S
C276        C330   1.469       .  S
N277        N640   1.319   1_455  A
N277        N307   1.322       .  A
N278        N314   1.328       .  A
N279        C664   1.354       .  A
N279        N289   1.329       .  A
H280        C305   1.081       .  S
N281        N630   1.322       .  A
N281        N302   1.324       .  A
N282        N287   1.322       .  A
C283        N287   1.344       .  A
N284        C299   1.349       .  A
N284        N633   1.320       .  A
C285        N313   1.340       .  A
C285        C288   1.454       .  S
C285        H319   1.081       .  S
N289        N651   1.320       .  A
N290        C316   1.336       .  A
N290        N648   1.322       .  A
N290       Co306   2.072       .  S
N291        C305   1.339       .  A
N292        N646   1.322   1_455  A
N292        N320   1.326       .  A
N292       Co310   2.091       .  S
H293        C316   1.081       .  S
H294        C311   1.081       .  S
N295        N645   1.319   1_455  A
N297        N309   1.326       .  A
N297       Co306   2.085       .  S
C298        N302   1.345       .  A
C298        C346   1.472       .  S
C298        C668   1.463       .  S
C299        C318   1.471       .  S
C299        H303   1.081       .  S
N300        C311   1.348       .  A
N300       Co310   2.110       .  S
C304        N320   1.351   1_655  A
C304        C706   1.467       .  S
C304        C672   1.451       .  S
Co306      Cl495   2.459   1_565  S
N307        C674   1.344       .  A
C308        N635   1.348       .  A
C308        C698   1.464       .  S
C312        C654   1.454       .  S
C316        C660   1.445       .  S
Cl317      Co540   2.452       .  S
Cl317      Co484   2.449       .  S
C318        N663   1.342       .  A
C318        C354   1.476       .  S
C321        C322   1.359       .  D
C321        C341   1.494       .  S
C321        C345   1.490       .  S
C322        C349   1.490       .  S
C322        C353   1.490       .  S
C323        C324   1.362       .  D
C323        C333   1.483       .  S
C323        C337   1.491       .  S
C324        C326   1.500       .  S
C324        C329   1.492       .  S
C325        C326   1.343   1_545  D
C326        H328   1.087       .  S
C329        C330   1.337       .  D
C330        H332   1.087       .  S
C333        C334   1.340   1_565  D
C333        H335   1.086       .  S
C337        C338   1.343   1_565  D
C337        H339   1.087       .  S
C341        C342   1.338       .  D
C341        H699   1.087       .  S
C342        C664   1.476       .  S
C342        H344   1.086       .  S
H343        C697   1.086   1_455  S
C345        C346   1.339       .  D
C345        H347   1.086       .  S
C346        H704   1.086       .  S
H348        C702   1.087       .  S
C349        C350   1.337       .  D
C349        H707   1.088       .  S
C350        C660   1.466       .  S
C350        H352   1.086       .  S
H351        C705   1.087   1_455  S
C353        C354   1.336       .  D
C353        H355   1.085       .  S
C354        H356   1.087       .  S
C357        N375   1.350       .  A
C357        C427   1.463       .  S
C357        C572   1.449       .  S
N358        N375   1.326       .  A
N358        N558   1.320       .  A
N358       Co484   2.089       .  S
C359        N384   1.334       .  A
C359        C397   1.443       .  S
C359        H404   1.081       .  S
H360        C401   1.081       .  S
C361        N385   1.340       .  A
C361        C365   1.453       .  S
C361        H390   1.081       .  S
Co362       N380   2.070       .  S
Co362       N370   2.086       .  S
Co362       N491   2.091       .  S
Co362       N467   2.061       .  S
N363        C401   1.347       .  A
N363       Co364   2.095       .  S
Co364       N367   2.103       .  S
Co364       N473   2.090       .  S
Co364       N460   2.090       .  S
Co364      Cl495   2.461       .  S
C365        N581   1.350       .  A
C365        C419   1.470       .  S
N366        N396   1.324       .  A
N366       Co488   2.083       .  S
N367        N563   1.322   1_545  A
N367        N403   1.330       .  A
N368        N378   1.323       .  A
H369        C394   1.081       .  S
N370        N391   1.326       .  A
N371        N567   1.319   1_545  A
N371        N376   1.322       .  A
N371       Co453   2.073   1_554  S
C372        N376   1.342   1_565  A
C372        C592   1.467   1_565  S
C372        C578   1.462       .  S
N373        C388   1.340       .  A
N373       Co484   2.073       .  S
C374        N402   1.342       .  A
C374        C377   1.458       .  S
C374        H408   1.081       .  S
C377        N576   1.349   1_545  A
C377        C601   1.474       .  S
N378       Co451   2.082   1_554  S
N379        C405   1.341       .  A
N379       Co395   2.094   1_554  S
N380        C394   1.338       .  A
N380        N536   1.320   1_545  A
N381        N409   1.326       .  A
N381       Co399   2.083       .  S
H382        C405   1.081       .  S
H383        C400   1.081       .  S
N384       Co453   2.069   1_554  S
N385        N545   1.320       .  A
N385       Co488   2.087       .  S
N386        N398   1.325       .  A
N386        N580   1.321       .  A
N386       Co395   2.085   1_554  S
C387        N391   1.350   1_455  A
C387        C435   1.472       .  S
C388        C407   1.457   1_655  S
C388        H392   1.081       .  S
N389        C400   1.339       .  A
N389        N549   1.321       .  A
N389       Co399   2.077       .  S
C393        N409   1.352       .  A
C394        C535   1.450       .  S
Co395       N447   2.104       .  S
Co395       N462   2.097       .  S
N398        C555   1.349       .  A
Co399       N455   2.077   1_554  S
Co399       N474   2.060   1_554  S
Co399      Cl584   2.448       .  S
C400        C550   1.456       .  S
N402        N564   1.321   1_545  A
N402       Co451   2.094   1_554  S
N403        C543   1.355   1_545  A
Cl406      Co453   2.447   1_554  S
Cl406      Co577   2.460   1_545  S
C407        C443   1.468       .  S
C410        C411   1.358       .  D
C410        C430   1.485       .  S
C410        C434   1.489   1_455  S
C411        C438   1.488       .  S
C411        C442   1.483   1_455  S
C412        C413   1.360       .  D
C412        C422   1.486       .  S
C412        C426   1.493       .  S
C413        C415   1.486       .  S
C413        C418   1.486       .  S
C414        C550   1.470       .  S
C414        C415   1.342       .  D
C414        H594   1.086       .  S
C415        H417   1.087       .  S
H416        C592   1.087       .  S
C418        C419   1.339       .  D
C418        H598   1.087       .  S
C419        H421   1.087       .  S
H420        C596   1.087   1_545  S
C422        C423   1.342       .  D
C422        H424   1.086       .  S
C423        C555   1.473       .  S
C423        H603   1.087       .  S
H425        C601   1.087       .  S
C426        C427   1.340       .  D
C426        H428   1.087       .  S
C427        H607   1.085       .  S
H429        C605   1.086       .  S
C430        C431   1.340   1_455  D
C431        H433   1.087       .  S
C434        C435   1.341   1_655  D
C434        H436   1.087       .  S
C438        C439   1.343   1_455  D
C439        H441   1.087       .  S
C442        C443   1.340   1_655  D
C442        H444   1.086       .  S
C443        H445   1.087       .  S
C446        N464   1.354       .  A
C446        C516   1.467       .  S
C446        C661   1.445       .  S
N447        N464   1.329       .  A
N447        N647   1.321       .  A
C448        N473   1.342       .  A
C448        C486   1.460       .  S
C448        H493   1.081       .  S
H449        C490   1.081       .  S
C450        N474   1.333       .  A
C450        C454   1.439       .  S
C450        H479   1.081       .  S
Co451       N469   2.085       .  S
Co451       N459   2.107       .  S
N452        C490   1.339       .  A
N452       Co453   2.074       .  S
Co453       N456   2.080       .  S
C454        N670   1.357       .  A
C454        C508   1.465       .  S
N455        N485   1.322       .  A
N456        N652   1.320   1_545  A
N456        N492   1.325       .  A
N457        N467   1.319       .  A
H458        C483   1.081       .  S
N459        N480   1.330       .  A
N460        N656   1.321   1_545  A
N460        N465   1.324       .  A
C461        N465   1.347       .  A
C461        C681   1.473       .  S
C461        C667   1.462   1_545  S
N462        C477   1.348       .  A
C463        N491   1.342       .  A
C463        C466   1.456       .  S
C463        H497   1.081       .  S
C466        N665   1.347   1_545  A
C466        C690   1.468       .  S
N468        C494   1.336       .  A
N468       Co484   2.077       .  S
N469        C483   1.343       .  A
N469        N625   1.322   1_545  A
N470        N498   1.326       .  A
N470       Co488   2.086       .  S
H471        C494   1.081       .  S
H472        C489   1.081       .  S
N474        N634   1.321       .  A
N475        N487   1.322       .  A
N475        N669   1.319       .  A
N475       Co484   2.069       .  S
C476        N480   1.355   1_455  A
C476        C524   1.468       .  S
C477        C496   1.465   1_655  S
C477        H481   1.081       .  S
N478        C489   1.346       .  A
N478        N638   1.320       .  A
N478       Co488   2.098       .  S
C482        N498   1.350       .  A
C483        C624   1.460   1_545  S
N487        C644   1.342       .  A
Co488      Cl673   2.454       .  S
C489        C639   1.463       .  S
N491        N653   1.319   1_545  A
N492        C632   1.349   1_545  A
Cl495      Co666   2.447   1_545  S
C496        C532   1.469       .  S
C499        C500   1.362       .  D
C499        C519   1.493       .  S
C499        C523   1.497   1_455  S
C500        C527   1.491       .  S
C500        C531   1.491   1_455  S
C501        C502   1.358       .  D
C501        C511   1.482       .  S
C501        C515   1.497       .  S
C502        C504   1.501       .  S
C502        C507   1.489       .  S
C503        C639   1.465       .  S
C503        C504   1.338       .  D
C503        H683   1.085       .  S
C504        H506   1.087       .  S
H505        C681   1.087       .  S
C507        C508   1.333       .  D
C507        H687   1.087       .  S
C508        H510   1.087       .  S
H509        C685   1.087       .  S
C511        C512   1.334       .  D
C511        H513   1.086       .  S
C512        C644   1.467       .  S
C512        H692   1.087       .  S
H514        C690   1.087       .  S
C515        C516   1.341       .  D
C515        H517   1.087       .  S
C516        H696   1.085       .  S
H518        C694   1.087       .  S
C519        C520   1.336   1_455  D
C520        H522   1.087       .  S
C523        C524   1.341   1_655  D
C523        H525   1.085       .  S
C527        C528   1.337   1_455  D
C528        H530   1.087       .  S
C531        C532   1.338   1_655  D
C531        H533   1.086       .  S
C532        H534   1.087       .  S
C535        N553   1.350   1_545  A
C535        C605   1.464       .  S
N536        N553   1.325       .  A
N536       Co662   2.088       .  S
C537        N562   1.343       .  A
C537        C575   1.460       .  S
C537        H582   1.081       .  S
H538        C579   1.081       .  S
C539        N563   1.336       .  A
C539        C543   1.447       .  S
C539        H568   1.081       .  S
Co540       N558   2.075       .  S
Co540       N548   2.091       .  S
Co540       N669   2.089       .  S
Co540       N645   2.082       .  S
N541        C579   1.340       .  A
N541       Co542   2.076       .  S
Co542       N545   2.083       .  S
Co542       N651   2.084       .  S
Co542       N638   2.068       .  S
Co542      Cl673   2.453       .  S
C543        C597   1.470       .  S
N544        N574   1.322       .  A
N544       Co666   2.081       .  S
N545        N581   1.326       .  A
N546        N556   1.325       .  A
H547        C572   1.081       .  S
N548        N569   1.325       .  A
N549        N554   1.326       .  A
N549       Co631   2.096   1_554  S
C550        N554   1.349       .  A
N551        C566   1.337       .  A
N551       Co662   2.070       .  S
C552        N580   1.341       .  A
C552        C555   1.457       .  S
C552        H586   1.081       .  S
N556       Co629   2.081   1_554  S
N557        C583   1.344       .  A
N557       Co573   2.098       .  S
N558        C572   1.338       .  A
N559        N587   1.326       .  A
N559       Co577   2.086       .  S
H560        C583   1.081       .  S
H561        C578   1.081       .  S
N562       Co631   2.091   1_554  S
N563       Co666   2.082       .  S
N564        N576   1.325       .  A
N564       Co573   2.083       .  S
C565        N569   1.349       .  A
C565        C613   1.474       .  S
C566        C585   1.449       .  S
C566        H570   1.081       .  S
N567        C578   1.345       .  A
N567       Co577   2.088       .  S
C571        N587   1.351       .  A
Co573       N625   2.096   1_554  S
Co573       N640   2.079   1_554  S
Co577       N633   2.069   1_554  S
Co577       N652   2.085   1_554  S
N580       Co629   2.087   1_554  S
Cl584      Co631   2.457   1_554  S
C585        C621   1.471       .  S
C588        C589   1.357       .  D
C588        C608   1.481       .  S
C588        C612   1.483       .  S
C589        C616   1.486       .  S
C589        C620   1.484       .  S
C590        C591   1.358       .  D
C590        C600   1.485       .  S
C590        C604   1.479       .  S
C591        C593   1.488       .  S
C591        C596   1.499       .  S
C592        C593   1.337   1_545  D
C593        H595   1.087       .  S
C596        C597   1.339       .  D
C597        H599   1.086       .  S
C600        C601   1.342   1_565  D
C600        H602   1.086       .  S
C604        C605   1.337   1_565  D
C604        H606   1.087       .  S
C608        C609   1.340   1_455  D
C609        H611   1.086       .  S
C612        C613   1.342   1_455  D
C612        H614   1.086       .  S
C616        C617   1.345   1_455  D
C617        H619   1.085       .  S
C620        C621   1.337   1_455  D
C620        H622   1.086       .  S
C621        H623   1.085       .  S
C624        N642   1.348       .  A
C624        C694   1.473       .  S
N625        N642   1.325       .  A
C626        N651   1.340       .  A
C626        C664   1.450       .  S
C626        H671   1.081       .  S
H627        C668   1.081       .  S
C628        N652   1.340       .  A
C628        C632   1.453       .  S
C628        H657   1.081       .  S
Co629       N647   2.072       .  S
Co629       N637   2.083       .  S
N630        C668   1.345       .  A
N630       Co631   2.097       .  S
Co631       N634   2.110       .  S
C632        C686   1.467       .  S
N633        N663   1.321       .  A
N634        N670   1.330       .  A
N635        N645   1.324       .  A
H636        C661   1.081       .  S
N637        N658   1.324       .  A
N638        N643   1.321       .  A
C639        N643   1.340       .  A
N640        C655   1.341       .  A
C641        N669   1.343       .  A
C641        C644   1.463       .  S
C641        H675   1.081       .  S
N646        C672   1.338       .  A
N646       Co662   2.083       .  S
N647        C661   1.336       .  A
N648        N676   1.328       .  A
N648       Co666   2.101       .  S
H649        C672   1.081       .  S
H650        C667   1.081       .  S
N653        N665   1.324       .  A
N653       Co662   2.069       .  S
C654        N658   1.348   1_455  A
C654        C702   1.466       .  S
C655        C674   1.459   1_655  S
C655        H659   1.081       .  S
N656        C667   1.345       .  A
N656       Co666   2.091       .  S
C660        N676   1.354       .  A
C674        C710   1.465       .  S
C677        C678   1.354       .  D
C677        C697   1.476       .  S
C677        C701   1.483       .  S
C678        C705   1.488       .  S
C678        C709   1.478       .  S
C679        C680   1.358   1_545  D
C679        C689   1.482   1_545  S
C679        C693   1.489       .  S
C680        C682   1.491       .  S
C680        C685   1.483   1_565  S
C681        C682   1.342   1_545  D
C682        H684   1.086       .  S
C685        C686   1.339   1_545  D
C686        H688   1.087       .  S
C689        C690   1.341   1_565  D
C689        H691   1.086       .  S
C693        C694   1.342   1_545  D
C693        H695   1.086       .  S
C697        C698   1.339       .  D
C698        H700   1.087       .  S
C701        C702   1.340   1_655  D
C701        H703   1.087       .  S
C705        C706   1.340       .  D
C706        H708   1.087       .  S
C709        C710   1.335   1_655  D
C709        H711   1.086       .  S
C710        H712   1.087       .  S
