geometry optimzed in LAMMPS
_audit_creation_date              2020-12-01 
_audit_creation_method            'lammps2cif' 
_symmetry_space_group_name_H-M    'P1' 
_symmetry_Int_Tables_number       1 
_symmetry_cell_setting            triclinic 
loop_ 
_symmetry_equiv_pos_as_xyz 
  x,y,z 
_cell_length_a                    31.73567631 
_cell_length_b                    31.761127346761214 
_cell_length_c                    29.397812788360465 
_cell_angle_alpha                 90.14976137425346 
_cell_angle_beta                  88.80610610434451 
_cell_angle_gamma                 119.38932512234302 
loop_ 
_atom_site_label 
_atom_site_type_symbol 
_atom_site_fract_x 
_atom_site_fract_y 
_atom_site_fract_z 
_atom_site_charge 
N1          N  0.35146426  0.07304356  0.22803148    -0.25000
N2          N  0.37876228  0.11356038  0.20522096    -0.32900
C3          C  0.39900310  0.15024162  0.23472834     0.03300
C4          C  0.38304475  0.13165845  0.27812032     0.09300
C5          C  0.35288906  0.08274480  0.27263556    -0.03800
H6          H  0.42085446  0.18787605  0.22504700     0.10000
H7          H  0.33226214  0.05639308  0.29891784     0.11200
Cu8        Cu  0.37924255  0.11716527  0.13512183     0.44200
Cu9        Cu  0.31088802  0.00765951  0.19664442     0.42000
Cu10       Cu  0.29112296  0.00818460  0.07577632     0.43900
N11         N  0.36399886  0.11488293  0.06694280    -0.32400
N12         N  0.33088110  0.07648654  0.04557250    -0.26700
C13         C  0.32908476  0.08913281  0.00224911    -0.02800
C14         C  0.36300061  0.13743183  0.99618321     0.09400
C15         C  0.38432048  0.15258743  0.03791853     0.03200
H16         H  0.38145285  0.11473254  0.47663957     0.10900
H17         H  0.41187802  0.18857596  0.04701550     0.10000
N18         N  0.26420833  0.94529023  0.11523881    -0.33900
N19         N  0.27303292  0.94591058  0.15907063    -0.26000
C20         C  0.25531081  0.90044125  0.17438506    -0.01300
C21         C  0.23376259  0.86939385  0.13880692     0.07300
C22         C  0.23990729  0.89892109  0.10164150     0.05400
H23         H  0.25884093  0.89076020  0.20880093     0.10500
H24         H  0.22965088  0.88775788  0.06695428     0.09400
C25         C  0.20023087  0.46866592  0.13313421    -0.00200
C26         C  0.16406991  0.73204850  0.11159767    -0.00200
C27         C  0.24203724  0.66671805  0.10601752     0.82500
N28         N  0.28881785  0.70066329  0.09529955    -0.75800
C29         C  0.32376491  0.68733362  0.09223105     0.84900
N30         N  0.31208672  0.64099772  0.10111221    -0.75800
C31         C  0.26629410  0.60765532  0.11317333     0.85000
N32         N  0.23130816  0.62048833  0.11494740    -0.77500
C33         C  0.45919010  0.78543475  0.10229247    -0.00200
N34         N  0.62721490  0.61050971  0.23146242    -0.25000
N35         N  0.63707288  0.57827893  0.21297116    -0.32900
C36         C  0.65270382  0.55971643  0.24549956     0.03300
C37         C  0.65312821  0.58165978  0.28650963     0.09300
C38         C  0.63710746  0.61393841  0.27614826    -0.03800
H39         H  0.66512928  0.53396610  0.23929221     0.10000
H40         H  0.63343914  0.63851412  0.29933394     0.11200
Cu41       Cu  0.63336333  0.56594820  0.14309734     0.44200
Cu42       Cu  0.60069904  0.64762162  0.19349836     0.42000
Cu43       Cu  0.58390751  0.62476163  0.07060880     0.43900
N44         N  0.63482243  0.56472706  0.07212964    -0.32400
N45         N  0.61714278  0.58544726  0.04525859    -0.26700
C46         C  0.62742027  0.57959362  0.00151463    -0.02800
C47         C  0.65295157  0.55426053  0.00107344     0.09400
C48         C  0.65675552  0.54565733  0.04645328     0.03200
H49         H  0.66034290  0.65447316  0.47231624     0.10900
H50         H  0.67557429  0.52797488  0.05999640     0.10000
N51         N  0.56030218  0.66701556  0.10742864    -0.33900
N52         N  0.56869719  0.67630895  0.15129716    -0.26000
C53         C  0.55279641  0.70673257  0.16454330    -0.01300
C54         C  0.53264186  0.71694986  0.12788639     0.07300
C55         C  0.53791073  0.69103268  0.09204431     0.05400
H56         H  0.55584067  0.72067264  0.19865975     0.10500
H57         H  0.52789169  0.69107705  0.05710556     0.09400
N58         N  0.87494736  0.32420184  0.03334341    -0.25000
N59         N  0.83303552  0.31782668  0.04969283    -0.32900
C60         C  0.80271126  0.30848355  0.01517125     0.03300
C61         C  0.82647872  0.30862286  0.97513828     0.09300
C62         C  0.87203170  0.31829895  0.98789163    -0.03800
H63         H  0.76571966  0.30109418  0.01913027     0.10000
H64         H  0.88907673  0.29844006  0.45724569     0.11200
Cu65       Cu  0.81672942  0.31848397  0.11818949     0.44200
Cu66       Cu  0.93493723  0.34339736  0.07337244     0.42000
Cu67       Cu  0.91503996  0.34999507  0.19377055     0.43900
N68         N  0.80796311  0.31148728  0.18824202    -0.32400
N69         N  0.84433407  0.32262281  0.21565998    -0.26700
C70         C  0.82726760  0.31073174  0.25853958    -0.02800
C71         C  0.77751150  0.29104371  0.25816405     0.09400
C72         C  0.76651798  0.29217080  0.21307051     0.03200
H73         H  0.84962957  0.31504288  0.28734096     0.10900
H74         H  0.73089913  0.27857171  0.19916125     0.10000
N75         N  0.98245945  0.37360375  0.16448376    -0.33900
N76         N  0.98990974  0.36996982  0.12060218    -0.26000
C77         C  0.03776458  0.38971112  0.11243364    -0.01300
C78         C  0.06133885  0.40669808  0.15321085     0.07300
C79         C  0.02517514  0.39608087  0.18534682     0.05400
H80         H  0.05415168  0.39355831  0.07896777     0.10500
H81         H  0.02957421  0.40496904  0.22111378     0.09400
N82         N  0.04971159  0.68019795  0.46510497    -0.25000
N83         N  0.09018431  0.70387438  0.44059903    -0.32900
C84         C  0.12690607  0.72850574  0.46953116     0.03300
C85         C  0.10808927  0.71941713  0.51400069     0.09300
C86         C  0.05930583  0.68845816  0.50948566    -0.03800
H87         H  0.16424955  0.75146845  0.45900486     0.10000
H88         H  0.03357563  0.67230903  0.01612938     0.11200
Cu89       Cu  0.09042888  0.70176360  0.36847691     0.44200
Cu90       Cu  0.98132676  0.64310626  0.43912063     0.42200
Cu91       Cu  0.96891168  0.65916786  0.32196467     0.43900
N92         N  0.07549178  0.69638124  0.29803315    -0.32400
N93         N  0.03199755  0.68329624  0.28218535    -0.26700
C94         C  0.03487598  0.68730749  0.23647309    -0.02800
C95         C  0.08200824  0.70267614  0.22219284     0.09400
C96         C  0.10686459  0.70805372  0.26220901     0.03200
H97         H  0.00469285  0.67978980  0.21506018     0.10900
H98         H  0.14530620  0.72155048  0.26513267     0.10000
N99         N  0.91002834  0.62896769  0.36762418    -0.33900
N100        N  0.91508406  0.62162465  0.41086803    -0.26000
C101        C  0.87144729  0.59960076  0.43187771    -0.01300
C102        C  0.83697447  0.59280107  0.40048966     0.07300
C103        C  0.86266845  0.61180954  0.35991757     0.05400
H104        H  0.86522821  0.58874309  0.46733343     0.10500
H105        H  0.84807016  0.61167913  0.32696909     0.09400
N106        N  0.25662174  0.38484042  0.29300516    -0.25000
N107        N  0.25008555  0.41924960  0.31171475    -0.32900
C108        C  0.23595746  0.43918656  0.27893414     0.03300
C109        C  0.23300168  0.41561322  0.23812933     0.09300
C110        C  0.24610222  0.38140298  0.24864498    -0.03800
H111        H  0.22682213  0.46743461  0.28470439     0.10000
H112        H  0.24772787  0.35556639  0.22563388     0.11200
Cu113      Cu  0.25697633  0.43385944  0.38219481     0.44200
Cu114      Cu  0.27934154  0.34262928  0.32678156     0.42000
Cu115      Cu  0.27900567  0.34803479  0.44597773     0.43900
N116        N  0.26253473  0.43363263  0.45372167    -0.32400
N117        N  0.27111195  0.40227376  0.47544650    -0.26700
C118        C  0.27237450  0.41007018  0.52034283    -0.02800
C119        C  0.26339964  0.44762716  0.52813064     0.09400
C120        C  0.25730008  0.46200742  0.48510428     0.03200
H121        H  0.25679945  0.39717991  0.03513805     0.10900
H122        H  0.24895970  0.49031567  0.47719392     0.10000
N123        N  0.29881302  0.30419754  0.41160401    -0.33900
N124        N  0.30171849  0.30408749  0.36678836    -0.26000
C125        C  0.32414215  0.27925008  0.35413404    -0.01300
C126        C  0.33542773  0.26284731  0.39317791     0.07300
C127        C  0.31842193  0.27886798  0.42891644     0.05400
H128        H  0.33329160  0.27525303  0.31933261     0.10500
H129        H  0.32362111  0.27592116  0.46478862     0.09400
C130        C  0.69778022  0.53004645  0.38464003    -0.00200
C131        C  0.65912982  0.32942113  0.37778899     0.82500
N132        N  0.61240233  0.29501444  0.37317636    -0.75800
C133        C  0.57674568  0.30644120  0.37314157     0.84900
N134        N  0.58771865  0.35322251  0.37800513    -0.75800
C135        C  0.63447209  0.38856929  0.38225339     0.85000
N136        N  0.67042155  0.37660645  0.38200545    -0.77500
C137        C  0.43727624  0.23051941  0.36994051    -0.00200
C138        C  0.72165445  0.25015892  0.38018320    -0.00200
N139        N  0.52068262  0.90258677  0.26991726    -0.25000
N140        N  0.49924152  0.86354619  0.29602983    -0.32900
C141        C  0.47743348  0.82423639  0.26984442     0.03300
C142        C  0.48546240  0.83889978  0.22491649     0.09300
C143        C  0.51306120  0.88897059  0.22601147    -0.03800
H144        H  0.45770450  0.78749211  0.28264572     0.10000
H145        H  0.52706099  0.91364100  0.19730999     0.11200
Cu146      Cu  0.50186740  0.86465948  0.36594391     0.44200
Cu147      Cu  0.56012335  0.97161712  0.29706069     0.42000
Cu148      Cu  0.57387198  0.97719809  0.42219168     0.43900
N149        N  0.50831972  0.87051636  0.43552253    -0.32400
N150        N  0.53468633  0.91153307  0.45705363    -0.26700
C151        C  0.53009368  0.90238839  0.50223193    -0.02800
C152        C  0.49935083  0.85317548  0.50894510     0.09400
C153        C  0.48644961  0.83436121  0.46595914     0.03200
H154        H  0.59044592  0.94923558  0.02683858     0.10900
H155        H  0.46248797  0.79700023  0.45736551     0.10000
N156        N  0.60465987  0.03707796  0.37841678    -0.33900
N157        N  0.59851947  0.03514030  0.33386939    -0.26000
C158        C  0.62053805  0.08046859  0.31684891    -0.01300
C159        C  0.64200745  0.11249299  0.35203375     0.07300
C160        C  0.63121190  0.08368144  0.39062603     0.05400
H161        H  0.62055593  0.08951051  0.28137909     0.10500
H162        H  0.64040637  0.09560085  0.42529391     0.09400
C163        C  0.69622472  0.19473982  0.38138892    -0.14200
C164        C  0.66758300  0.16594528  0.34844956    -0.29300
H165        H  0.70107208  0.17743303  0.41115984     0.14900
H166        H  0.66219163  0.18151462  0.31793322     0.15400
C167        C  0.69664048  0.31464249  0.37899918    -0.14200
C168        C  0.68451842  0.26732475  0.37886788    -0.29300
H169        H  0.73439182  0.34241707  0.38041678     0.14900
H170        H  0.64659625  0.23984789  0.37791608     0.15400
C171        C  0.52679420  0.26687369  0.37007386    -0.14200
C172        C  0.48823810  0.27351701  0.36930921    -0.29300
H173        H  0.52123781  0.23025798  0.36946201     0.14900
H174        H  0.49346908  0.31002553  0.36977820     0.15400
C175        C  0.68922531  0.47799752  0.38458471    -0.14200
C176        C  0.64453690  0.43919485  0.38659529    -0.29300
H177        H  0.72004308  0.47199850  0.38089351     0.14900
H178        H  0.61356352  0.44499502  0.38941571     0.15400
C179        C  0.40172504  0.24950731  0.36716411    -0.14200
C180        C  0.36574638  0.24005534  0.39741020    -0.29300
H181        H  0.40656639  0.27277907  0.33815725     0.14900
H182        H  0.36001396  0.21805797  0.42745131     0.15400
C183        C  0.78409960  0.56590308  0.40893852    -0.14200
C184        C  0.75211838  0.56398822  0.37853824    -0.29300
H185        H  0.77089637  0.54534575  0.44049210     0.14900
H186        H  0.76551489  0.58564272  0.34760354     0.15400
C187        C  0.74256647  0.27037298  0.29657406    -0.14200
C188        C  0.75667521  0.27077910  0.33950330    -0.29300
H189        H  0.70456168  0.25567831  0.28932679     0.14900
H190        H  0.79513115  0.28873632  0.34592465     0.15400
C191        C  0.74961814  0.26837763  0.42399368    -0.14200
C192        C  0.78759369  0.26241349  0.43394949    -0.29300
H193        H  0.73890073  0.28774402  0.44794506     0.14900
H194        H  0.80041144  0.24499975  0.40985825     0.15400
C195        C  0.67248707  0.57683376  0.33060261    -0.14200
C196        C  0.67202175  0.53573412  0.34312616    -0.29300
H197        H  0.68857633  0.60838906  0.35190548     0.14900
H198        H  0.65424385  0.50503927  0.32050853     0.15400
C199        C  0.67903375  0.53936426  0.43032763    -0.14200
C200        C  0.68796593  0.58345530  0.44427382    -0.29300
H201        H  0.65911121  0.50908312  0.45361616     0.14900
H202        H  0.70072894  0.52869090  0.97110629     0.15400
C203        C  0.48056988  0.75081015  0.10029725    -0.14200
C204        C  0.51401776  0.75180729  0.12881915    -0.29300
H205        H  0.46774311  0.72374471  0.07375251     0.14900
H206        H  0.52790983  0.77819460  0.15571556     0.15400
C207        C  0.51825190  0.84812647  0.04669254    -0.14200
C208        C  0.47247868  0.81424908  0.05777174    -0.29300
H209        H  0.45780342  0.78589355  0.54799622     0.14900
H210        H  0.44367523  0.80895439  0.03508917     0.15400
C211        C  0.46841500  0.80597104  0.18574454    -0.14200
C212        C  0.47792208  0.82100153  0.14209044    -0.29300
H213        H  0.44761481  0.76746280  0.19309595     0.14900
H214        H  0.49820009  0.85956248  0.13501628     0.15400
C215        C  0.37462568  0.72161529  0.07927721    -0.14200
C216        C  0.40373330  0.75632316  0.10790176    -0.29300
H217        H  0.39038072  0.71266158  0.05027704     0.14900
H218        H  0.38660137  0.76254227  0.13765890     0.15400
C219        C  0.20701052  0.72259008  0.10533888    -0.14200
C220        C  0.20163081  0.67788707  0.10817833    -0.29300
H221        H  0.24316822  0.75303119  0.09978833     0.14900
H222        H  0.16546282  0.64765988  0.11420126     0.15400
C223        C  0.14178787  0.72037294  0.02872749    -0.14200
C224        C  0.12797351  0.70836320  0.07284148    -0.29300
H225        H  0.17987925  0.74464330  0.02106999     0.14900
H226        H  0.09027222  0.68320724  0.08110078     0.15400
C227        C  0.14009327  0.71309635  0.15882214    -0.14200
C228        C  0.10121817  0.71571990  0.17456633    -0.29300
H229        H  0.15681757  0.69905875  0.18172355     0.14900
H230        H  0.08269155  0.72773495  0.15174509     0.15400
C231        C  0.14595471  0.43444678  0.13072282    -0.14200
C232        C  0.11380823  0.43536251  0.16051267    -0.29300
H233        H  0.13241183  0.40904785  0.10274526     0.14900
H234        H  0.12630958  0.45859209  0.19006290     0.15400
C235        C  0.21026884  0.52059690  0.12767155    -0.14200
C236        C  0.25556672  0.55789418  0.12343549    -0.29300
H237        H  0.17997645  0.52730257  0.12454987     0.14900
H238        H  0.28588120  0.55108680  0.12520568     0.15400
C239        C  0.22465112  0.45686156  0.09339753    -0.14200
C240        C  0.21520163  0.46250015  0.04992385    -0.29300
H241        H  0.24918118  0.44306946  0.10022400     0.14900
H242        H  0.26923938  0.45089993  0.60247761     0.15400
C243        C  0.21871507  0.46305890  0.17922157    -0.14200
C244        C  0.21634210  0.42159569  0.19303188    -0.29300
H245        H  0.23385167  0.49373867  0.20208202     0.14900
H246        H  0.20299900  0.39126470  0.16984643     0.15400
C247        C  0.39038670  0.15855017  0.32060991    -0.14200
C248        C  0.43069322  0.20078030  0.32745546    -0.29300
H249        H  0.36231120  0.14316916  0.34699493     0.14900
H250        H  0.45924130  0.21445622  0.30137209     0.15400
C251        C  0.43976228  0.21963029  0.45445321    -0.14200
C252        C  0.43020163  0.20009870  0.41270912    -0.29300
H253        H  0.45406323  0.25829919  0.45817793     0.14900
H254        H  0.41826150  0.16184265  0.40921082     0.15400
C255        C  0.21362412  0.81656204  0.14076411    -0.14200
C256        C  0.18319551  0.78654271  0.10966692    -0.29300
H257        H  0.22360005  0.80170106  0.16918522     0.14900
H258        H  0.17171349  0.80164765  0.08259394     0.15400
N259        N  0.40420552  0.13230216  0.73252653    -0.25000
N260        N  0.42805471  0.17265067  0.70843038    -0.32900
C261        C  0.44291787  0.21072327  0.73620776     0.03300
C262        C  0.42783922  0.19378405  0.77998154     0.09300
C263        C  0.40348180  0.14377856  0.77655887    -0.03800
H264        H  0.46146606  0.24807101  0.72500412     0.10000
H265        H  0.38438405  0.11767870  0.80344540     0.11200
Cu266      Cu  0.43389735  0.17530582  0.63843364     0.44200
Cu267      Cu  0.36825614  0.06416401  0.70314797     0.42000
Cu268      Cu  0.36012375  0.06460755  0.57949250     0.43900
N269        N  0.42748171  0.17149761  0.56873548    -0.32400
N270        N  0.40046040  0.13093754  0.54678462    -0.26700
C271        C  0.40184048  0.14110574  0.50219920    -0.02800
C272        C  0.43092383  0.19054341  0.49610237     0.09400
C273        C  0.44640494  0.20858579  0.53895530     0.03200
H274        H  0.30528184  0.06482941  0.97688331     0.10900
H275        H  0.46861503  0.24611406  0.54806232     0.10000
N276        N  0.32494384  0.00280073  0.61990752    -0.33900
N277        N  0.32922043  0.00230293  0.66455227    -0.26000
C278        C  0.30430163  0.95630545  0.67970061    -0.01300
C279        C  0.28284062  0.92653844  0.64303266     0.07300
C280        C  0.29675678  0.95726775  0.60561967     0.05400
H281        H  0.30227239  0.94527623  0.71483335     0.10500
H282        H  0.28859311  0.94727888  0.57037705     0.09400
C283        C  0.22091259  0.50205608  0.62717444    -0.00200
C284        C  0.20395122  0.79219991  0.60768054    -0.00200
C285        C  0.26334498  0.71026411  0.60316951     0.82500
N286        N  0.31113427  0.73556049  0.61414670    -0.75800
C287        C  0.33653419  0.71138208  0.61957402     0.84900
N288        N  0.31331472  0.66239968  0.61566422    -0.75800
C289        C  0.26608151  0.63775130  0.60413704     0.85000
N290        N  0.24201008  0.66201714  0.59684366    -0.77500
C291        C  0.47309245  0.81092450  0.63585041    -0.00200
N292        N  0.63142158  0.62217862  0.72537680    -0.25000
N293        N  0.64409151  0.59290354  0.70440026    -0.32900
C294        C  0.66129017  0.57418110  0.73546118     0.03300
C295        C  0.66016189  0.59300475  0.77785250     0.09300
C296        C  0.64122286  0.62337437  0.76995766    -0.03800
H297        H  0.67575699  0.55043701  0.72738202     0.10000
H298        H  0.63547674  0.64527919  0.79488788     0.11200
Cu299      Cu  0.64410477  0.58422571  0.63333849     0.44200
Cu300      Cu  0.60268874  0.66149846  0.69325416     0.42000
Cu301      Cu  0.62548239  0.67216837  0.57336527     0.43900
N302        N  0.65262244  0.59362882  0.56221599    -0.32400
N303        N  0.64875163  0.62842869  0.54142911    -0.26700
C304        C  0.66011502  0.62914891  0.49700146    -0.02800
C305        C  0.67073778  0.59249424  0.48870428     0.09400
C306        C  0.66568913  0.57056889  0.53092756     0.03200
H307        H  0.61866960  0.59435863  0.97239294     0.10900
H308        H  0.67286511  0.54141411  0.53859716     0.10000
N309        N  0.59081623  0.70481225  0.60691491    -0.33900
N310        N  0.57995909  0.69958281  0.65094403    -0.26000
C311        C  0.55489356  0.72287150  0.66105082    -0.01300
C312        C  0.55023643  0.74389954  0.62133156     0.07300
C313        C  0.57381355  0.73187585  0.58804876     0.05400
H314        H  0.54214344  0.72534416  0.69483164     0.10500
H315        H  0.57795342  0.74180129  0.55239012     0.09400
N316        N  0.87436568  0.31647099  0.52425868    -0.25000
N317        N  0.83494632  0.31188075  0.54472511    -0.32900
C318        C  0.79776452  0.29115992  0.51635792     0.03300
C319        C  0.81469883  0.28222072  0.47584685     0.09300
C320        C  0.86334479  0.29833796  0.48203643    -0.03800
H321        H  0.76124778  0.28329457  0.52473570     0.10000
H322        H  0.90122016  0.32177431  0.96570941     0.11200
Cu323      Cu  0.83434484  0.33329091  0.61042603     0.44200
Cu324      Cu  0.94038907  0.35063999  0.55589951     0.42000
Cu325      Cu  0.94390759  0.38643611  0.67654422     0.43900
N326        N  0.83538072  0.34352184  0.67933654    -0.32400
N327        N  0.87415823  0.36104902  0.70481344    -0.26700
C328        C  0.85959589  0.35670429  0.74892890    -0.02800
C329        C  0.80939703  0.33544778  0.75053705     0.09400
C330        C  0.79568284  0.32797106  0.70590505     0.03200
H331        H  0.88353321  0.36684322  0.77746674     0.10900
H332        H  0.75910159  0.31029454  0.69356642     0.10000
N333        N  0.00530478  0.40483925  0.63495137    -0.33900
N334        N  0.00281932  0.39092926  0.59209933    -0.26000
C335        C  0.04767541  0.40711178  0.57497142    -0.01300
C336        C  0.08043205  0.43266170  0.60808841     0.07300
C337        C  0.05244905  0.43063083  0.64591399     0.05400
H338        H  0.05586609  0.40029189  0.54072781     0.10500
H339        H  0.06521023  0.44568899  0.67912452     0.09400
N340        N  0.04607232  0.68254779  0.94345998    -0.25000
N341        N  0.08594075  0.70166074  0.91760330    -0.32900
C342        C  0.12450546  0.71578906  0.94422211     0.03300
C343        C  0.10893623  0.70512329  0.98915571     0.09300
C344        C  0.05876244  0.68394796  0.98745108    -0.03800
H345        H  0.16165548  0.73413920  0.93183711     0.10000
H346        H  0.03221454  0.67420284  0.53660262     0.11200
Cu347      Cu  0.08861987  0.71215413  0.84711788     0.44200
Cu348      Cu  0.97668988  0.65902554  0.91646048     0.42200
Cu349      Cu  0.97877737  0.68623798  0.79387341     0.43900
N350        N  0.08599568  0.72631029  0.77809821    -0.32400
N351        N  0.04577077  0.71897241  0.75866513    -0.26700
C352        C  0.05614718  0.73445079  0.71497080    -0.02800
C353        C  0.10508559  0.75157103  0.70620496     0.09400
C354        C  0.12273718  0.74574116  0.74716602     0.03200
H355        H  0.02990846  0.73284326  0.69111067     0.10900
H356        H  0.15985535  0.75606974  0.75433664     0.10000
N357        N  0.91536043  0.64893926  0.83413701    -0.33900
N358        N  0.91390724  0.63979126  0.87830653    -0.26000
C359        C  0.86694326  0.61403289  0.89224184    -0.01300
C360        C  0.83758415  0.60613908  0.85504083     0.07300
C361        C  0.86975070  0.62856026  0.81900076     0.05400
H362        H  0.85505025  0.59978618  0.92632936     0.10500
H363        H  0.86057462  0.62898500  0.78382816     0.09400
N364        N  0.23481649  0.37887342  0.77803998    -0.25000
N365        N  0.23454814  0.41648520  0.79713021    -0.32900
C366        C  0.22854547  0.44265778  0.76464939     0.03300
C367        C  0.22444558  0.42021466  0.72321557     0.09300
C368        C  0.22815194  0.37965063  0.73299822    -0.03800
H369        H  0.22633636  0.47511340  0.77089438     0.10000
H370        H  0.22727878  0.35331877  0.70905862     0.11200
Cu371      Cu  0.24042073  0.42966391  0.86678730     0.44200
Cu372      Cu  0.24916682  0.33151637  0.81390631     0.42000
Cu373      Cu  0.27486683  0.35892081  0.93496618     0.43900
N374        N  0.24267191  0.43308106  0.93752454    -0.32400
N375        N  0.25589353  0.40741411  0.96284301    -0.26700
C376        C  0.25073993  0.41544388  0.00712781    -0.02800
C377        C  0.23307417  0.44755292  0.00968275     0.09400
C378        C  0.22833549  0.45780014  0.96498029     0.03200
H379        H  0.27769482  0.38857738  0.54569578     0.10900
H380        H  0.21364866  0.48012710  0.95327613     0.10000
N381        N  0.29077237  0.31272237  0.89786426    -0.33900
N382        N  0.28017324  0.30157113  0.85465929    -0.26000
C383        C  0.29919574  0.27404392  0.84048413    -0.01300
C384        C  0.32349043  0.26823306  0.87618358     0.07300
C385        C  0.31703291  0.29285691  0.91218548     0.05400
H386        H  0.29836556  0.26210480  0.80584590     0.10500
H387        H  0.33185649  0.29782151  0.94581592     0.09400
C388        C  0.69650595  0.53716095  0.87923360    -0.00200
C389        C  0.64751824  0.33336580  0.89689575     0.82500
N390        N  0.60048202  0.30095201  0.90458357    -0.75800
C391        C  0.56591357  0.31373139  0.90193436     0.84900
N392        N  0.57888797  0.36077350  0.89348412    -0.75800
C393        C  0.62656173  0.39472294  0.88765503     0.85000
N394        N  0.66098320  0.38062870  0.88840602    -0.77500
C395        C  0.42525307  0.23757830  0.90345241    -0.00200
C396        C  0.74883737  0.30113097  0.87143662    -0.00200
N397        N  0.52916883  0.96539843  0.78050263    -0.25000
N398        N  0.50943193  0.92304268  0.80171022    -0.32900
C399        C  0.48935038  0.88744352  0.77120749     0.03300
C400        C  0.49609569  0.90786130  0.72845736     0.09300
C401        C  0.52100893  0.95743127  0.73551110    -0.03800
H402        H  0.47209518  0.84933007  0.77955658     0.10000
H403        H  0.53461509  0.98545457  0.70962595     0.11200
Cu404      Cu  0.51332557  0.91275903  0.87036223     0.44200
Cu405      Cu  0.57218823  0.03104856  0.81416004     0.42000
Cu406      Cu  0.60159194  0.01185982  0.93062432     0.43900
N407        N  0.52830201  0.90638715  0.93704599    -0.32400
N408        N  0.56319651  0.94253055  0.95911098    -0.26700
C409        C  0.56568036  0.92692095  0.00104073    -0.02800
C410        C  0.52997096  0.87896390  0.00561410     0.09400
C411        C  0.50699934  0.86714396  0.96431630     0.03200
H412        H  0.54750250  0.92953327  0.52801703     0.10900
H413        H  0.47726016  0.83255872  0.95462781     0.10000
N414        N  0.62980420  0.07931087  0.89850734    -0.33900
N415        N  0.61915703  0.08709226  0.85711684    -0.26000
C416        C  0.64376264  0.13520373  0.84841912    -0.01300
C417        C  0.67106955  0.15863445  0.88616682     0.07300
C418        C  0.66107281  0.12189927  0.91695921     0.05400
H419        H  0.64189893  0.15173584  0.81696243     0.10500
H420        H  0.67557431  0.12589791  0.95066589     0.09400
C421        C  0.71497210  0.24647033  0.86354816    -0.14200
C422        C  0.70428798  0.21095101  0.89445127    -0.29300
H423        H  0.69726411  0.23612897  0.83101468     0.14900
H424        H  0.71989993  0.21986606  0.92789473     0.15400
C425        C  0.68201172  0.31522003  0.89987959    -0.14200
C426        C  0.71884086  0.32692305  0.87018297    -0.29300
H427        H  0.67295843  0.28602533  0.92408217     0.14900
H428        H  0.72656437  0.35452159  0.84450882     0.15400
C429        C  0.51521200  0.27454327  0.90549744    -0.14200
C430        C  0.47648093  0.28084783  0.90387809    -0.29300
H431        H  0.50935066  0.23791711  0.90841037     0.14900
H432        H  0.48186668  0.31732034  0.90115821     0.15400
C433        C  0.68526388  0.48418537  0.88263156    -0.14200
C434        C  0.63959302  0.44643833  0.88178539    -0.29300
H435        H  0.71499908  0.47687130  0.88701436     0.14900
H436        H  0.60993269  0.45400564  0.87828149     0.15400
C437        C  0.38991861  0.25696577  0.90370741    -0.14200
C438        C  0.35474713  0.24601104  0.87356082    -0.29300
H439        H  0.39393798  0.28140559  0.93129764     0.14900
H440        H  0.34960619  0.22200207  0.84538777     0.15400
C441        C  0.78419288  0.57434125  0.85132697    -0.14200
C442        C  0.75152129  0.57104320  0.88343117    -0.29300
H443        H  0.77117140  0.55437379  0.81994995     0.14900
H444        H  0.76487995  0.59365844  0.91333384     0.15400
C445        C  0.77480488  0.31902833  0.78945454    -0.14200
C446        C  0.78721630  0.32139166  0.83320343    -0.29300
H447        H  0.73677314  0.30309064  0.78140997     0.14900
H448        H  0.82528457  0.33793390  0.84126202     0.15400
C449        C  0.77353018  0.31192164  0.91746670    -0.14200
C450        C  0.80704083  0.29976933  0.92880111    -0.29300
H451        H  0.76366405  0.33089694  0.94267107     0.14900
H452        H  0.82032854  0.28350822  0.90391116     0.15400
C453        C  0.67863125  0.58623748  0.82188410    -0.14200
C454        C  0.67959384  0.54542618  0.83295634    -0.29300
H455        H  0.68941423  0.61473884  0.84687537     0.14900
H456        H  0.66652190  0.51639109  0.80828577     0.15400
C457        C  0.66951778  0.54742863  0.91818125    -0.14200
C458        C  0.67634513  0.54218474  0.96251980    -0.29300
H459        H  0.64394772  0.55949069  0.90981942     0.14900
H460        H  0.70857953  0.61464643  0.42246376     0.15400
C461        C  0.49375669  0.77589914  0.64098591    -0.14200
C462        C  0.52890572  0.77581737  0.61411156    -0.29300
H463        H  0.48039431  0.75106891  0.66985261     0.14900
H464        H  0.54314083  0.79970377  0.58481935     0.15400
C465        C  0.48182965  0.82452008  0.55142961    -0.14200
C466        C  0.49376000  0.84316114  0.59341906    -0.29300
H467        H  0.54714038  0.85593465  0.07015150     0.14900
H468        H  0.51777205  0.88172353  0.59710499     0.15400
C469        C  0.48304810  0.88168535  0.68472200    -0.14200
C470        C  0.48712363  0.84162508  0.67880922    -0.29300
H471        H  0.47155551  0.89602871  0.65707893     0.14900
H472        H  0.50189233  0.83070195  0.70661308     0.15400
C473        C  0.38947039  0.73645428  0.62757350    -0.14200
C474        C  0.41746455  0.78460895  0.63285554    -0.29300
H475        H  0.40596831  0.71357049  0.62730854     0.14900
H476        H  0.40026456  0.80693902  0.63212935     0.15400
C477        C  0.24351077  0.77784794  0.60645081    -0.14200
C478        C  0.23083979  0.73100290  0.60282982    -0.29300
H479        H  0.28148227  0.80491832  0.60869834     0.14900
H480        H  0.19260530  0.70491475  0.59997985     0.15400
C481        C  0.13191193  0.73734533  0.55832194    -0.14200
C482        C  0.17690258  0.77500187  0.56254590    -0.29300
H483        H  0.11106059  0.71805957  0.58836684     0.14900
H484        H  0.19726435  0.79271577  0.53162411     0.15400
C485        C  0.17242328  0.76995488  0.65110198    -0.14200
C486        C  0.13254306  0.77285047  0.66275053    -0.29300
H487        H  0.18363710  0.75106581  0.67452950     0.14900
H488        H  0.11889800  0.78946080  0.63932081     0.15400
C489        C  0.16617470  0.48321563  0.63224549    -0.14200
C490        C  0.13334095  0.45338363  0.60232182    -0.29300
H491        H  0.15341601  0.49335381  0.66271277     0.14900
H492        H  0.14495973  0.44254165  0.57169915     0.15400
C493        C  0.24800400  0.55698552  0.62950644    -0.14200
C494        C  0.23950823  0.58480240  0.60115012    -0.29300
H495        H  0.27591864  0.57496829  0.65459616     0.14900
H496        H  0.21003662  0.56822017  0.57742343     0.15400
C497        C  0.23466546  0.48933820  0.58078388    -0.14200
C498        C  0.25740006  0.46364144  0.57392642    -0.29300
H499        H  0.22391864  0.50167577  0.55102009     0.14900
H500        H  0.19201339  0.47799255  0.04347409     0.15400
C501        C  0.23522158  0.48279794  0.66827601    -0.14200
C502        C  0.21606223  0.43558242  0.67850595    -0.29300
H503        H  0.25950838  0.50846625  0.69282813     0.14900
H504        H  0.19323508  0.40827237  0.65443364     0.15400
C505        C  0.43256801  0.22403779  0.81980684    -0.14200
C506        C  0.42079100  0.20603162  0.86234620    -0.29300
H507        H  0.44600438  0.26235545  0.81402653     0.14900
H508        H  0.40925561  0.16807102  0.86791163     0.15400
C509        C  0.37314419  0.16633296  0.95413399    -0.14200
C510        C  0.41501780  0.20785425  0.94692966    -0.29300
H511        H  0.34615761  0.15255479  0.92783896     0.14900
H512        H  0.44249738  0.22045670  0.97276669     0.15400
C513        C  0.25523953  0.87312201  0.64396345    -0.14200
C514        C  0.22759259  0.84709485  0.60926021    -0.29300
H515        H  0.25849753  0.85460879  0.67357238     0.14900
H516        H  0.22309375  0.86603842  0.58064711     0.15400
loop_ 
_geom_bond_atom_site_label_1 
_geom_bond_atom_site_label_2 
_geom_bond_distance 
_geom_bond_site_symmetry_2 
_ccdc_geom_bond_type 
N1            N2   1.320       .  A
N1            C5   1.343       .  A
N1           Cu9   2.058       .  S
N2            C3   1.344       .  A
N2           Cu8   2.064       .  S
C3            C4   1.384       .  A
C3            H6   1.082       .  S
C4            C5   1.379       .  A
C4          C247   1.468       .  S
C5            H7   1.082       .  S
Cu8          N11   2.064       .  S
Cu9          N19   2.059   1_545  S
Cu10         N12   2.089       .  S
Cu10         N18   2.089   1_545  S
N11          N12   1.324       .  A
N11          C15   1.343       .  A
N12          C13   1.347       .  A
C13          C14   1.384   1_554  A
C13         H274   1.082   1_554  S
C14          C15   1.381   1_556  A
C14         C509   1.474       .  S
C15          H17   1.082       .  S
H16         C271   1.082       .  S
N18          N19   1.322       .  A
N18          C22   1.349       .  A
N19          C20   1.342       .  A
C20          C21   1.377       .  A
C20          H23   1.082       .  S
C21          C22   1.389       .  A
C21         C255   1.474       .  S
C22          H24   1.082       .  S
C25         C231   1.523       .  S
C25         C235   1.527       .  S
C25         C239   1.533       .  S
C25         C243   1.532       .  S
C26         C219   1.540       .  S
C26         C224   1.543       .  S
C26         C227   1.543       .  S
C26         C256   1.528       .  S
C27          N28   1.370       .  A
C27          N32   1.360       .  A
C27         C220   1.489       .  S
N28          C29   1.369       .  A
C29          N30   1.354       .  A
C29         C215   1.479       .  S
N30          C31   1.352       .  A
C31          N32   1.358       .  A
C31         C236   1.475       .  S
C33         C203   1.550       .  S
C33         C208   1.527       .  S
C33         C212   1.537       .  S
C33         C216   1.540       .  S
N34          N35   1.321       .  A
N34          C38   1.349       .  A
N34         Cu42   2.089       .  S
N35          C36   1.348       .  A
N35         Cu41   2.085       .  S
C36          C37   1.388       .  A
C36          H39   1.082       .  S
C37          C38   1.386       .  A
C37         C195   1.486       .  S
C38          H40   1.082       .  S
Cu41         N44   2.087       .  S
Cu42         N52   2.090       .  S
Cu43         N45   2.117       .  S
Cu43         N51   2.116       .  S
N44          N45   1.325       .  A
N44          C48   1.346       .  A
N45          C46   1.355       .  A
C46          C47   1.394       .  A
C46         H307   1.082   1_554  S
C47          C48   1.382       .  A
C47         C458   1.492   1_554  S
C48          H50   1.082       .  S
H49         C304   1.082       .  S
N51          N52   1.325       .  A
N51          C55   1.356       .  A
N52          C53   1.345       .  A
C53          C54   1.382       .  A
C53          H56   1.082       .  S
C54          C55   1.392       .  A
C54         C204   1.489       .  S
C55          H57   1.082       .  S
N58          N59   1.323       .  A
N58          C62   1.348   1_554  A
N58         Cu66   2.081       .  S
N59          C60   1.343       .  A
N59         Cu65   2.071       .  S
C60          C61   1.383   1_554  A
C60          H63   1.082       .  S
C61          C62   1.382       .  A
C61         C450   1.476       .  S
C62         H322   1.082       .  S
H64         C320   1.082       .  S
Cu65         N68   2.070       .  S
Cu66         N76   2.082       .  S
Cu67         N69   2.057       .  S
Cu67         N75   2.058       .  S
N68          N69   1.320       .  A
N68          C72   1.345       .  A
N69          C70   1.341       .  A
C70          C71   1.384       .  A
C70          H73   1.081       .  S
C71          C72   1.383       .  A
C71         C187   1.474       .  S
C72          H74   1.082       .  S
N75          N76   1.322       .  A
N75          C79   1.344   1_655  A
N76          C77   1.345   1_655  A
C77          C78   1.388       .  A
C77          H80   1.082       .  S
C78          C79   1.378       .  A
C78         C232   1.474       .  S
C79          H81   1.082       .  S
N82          N83   1.323       .  A
N82          C86   1.342       .  A
N82         Cu90   2.058   1_455  S
N83          C84   1.355       .  A
N83         Cu89   2.121       .  S
C84          C85   1.396       .  A
C84          H87   1.082       .  S
C85          C86   1.377       .  A
C85         C481   1.486       .  S
C86         H346   1.082       .  S
H88         C344   1.082   1_554  S
Cu89         N92   2.122       .  S
Cu90        N100   2.058       .  S
Cu91         N93   2.089   1_655  S
Cu91         N99   2.087       .  S
N92          N93   1.326       .  A
N92          C96   1.354       .  A
N93          C94   1.347       .  A
C94          C95   1.382       .  A
C94          H97   1.082       .  S
C95          C96   1.393       .  A
C95         C228   1.491       .  S
C96          H98   1.082       .  S
N99         N100   1.320       .  A
N99         C103   1.348       .  A
N100        C101   1.343       .  A
C101        C102   1.380       .  A
C101        H104   1.082       .  S
C102        C103   1.390       .  A
C102        C183   1.478       .  S
C103        H105   1.082       .  S
N106        N107   1.325       .  A
N106        C110   1.344       .  A
N106       Cu114   2.071       .  S
N107        C108   1.353       .  A
N107       Cu113   2.114       .  S
C108        C109   1.393       .  A
C108        H111   1.082       .  S
C109        C110   1.378       .  A
C109        C244   1.484       .  S
C110        H112   1.082       .  S
Cu113       N116   2.114       .  S
Cu114       N124   2.069       .  S
Cu115       N117   2.046       .  S
Cu115       N123   2.045       .  S
N116        N117   1.323       .  A
N116        C120   1.352       .  A
N117        C118   1.340       .  A
C118        C119   1.373       .  A
C118        H379   1.082       .  S
C119        C120   1.395       .  A
C119        C498   1.479       .  S
C120        H122   1.082       .  S
H121        C376   1.082       .  S
N123        N124   1.319       .  A
N123        C127   1.342       .  A
N124        C125   1.344       .  A
C125        C126   1.386       .  A
C125        H128   1.082       .  S
C126        C127   1.377       .  A
C126        C180   1.468       .  S
C127        H129   1.082       .  S
C130        C175   1.538       .  S
C130        C184   1.527       .  S
C130        C196   1.542       .  S
C130        C199   1.544       .  S
C131        N132   1.352       .  A
C131        N136   1.365       .  A
C131        C167   1.480       .  S
N132        C133   1.347       .  A
C133        N134   1.357       .  A
C133        C171   1.466       .  S
N134        C135   1.360       .  A
C135        N136   1.368       .  A
C135        C176   1.483       .  S
C137        C172   1.521       .  S
C137        C179   1.522       .  S
C137        C248   1.519       .  S
C137        C252   1.532       .  S
C138        C163   1.535       .  S
C138        C168   1.523       .  S
C138        C188   1.526       .  S
C138        C191   1.523       .  S
N139        N140   1.321       .  A
N139        C143   1.349       .  A
N139       Cu147   2.086       .  S
N140        C141   1.341       .  A
N140       Cu146   2.058       .  S
C141        C142   1.378       .  A
C141        H144   1.082       .  S
C142        C143   1.390       .  A
C142        C211   1.475       .  S
C143        H145   1.081       .  S
Cu146       N149   2.059       .  S
Cu147       N157   2.087   1_565  S
Cu148       N150   2.088       .  S
Cu148       N156   2.089   1_565  S
N149        N150   1.321       .  A
N149        C153   1.341       .  A
N150        C151   1.350       .  A
C151        C152   1.390       .  A
C151        H412   1.082       .  S
C152        C153   1.378       .  A
C152        C465   1.476       .  S
C153        H155   1.082       .  S
H154        C409   1.082       .  S
N156        N157   1.325       .  A
N156        C160   1.347       .  A
N157        C158   1.347       .  A
C158        C159   1.383       .  A
C158        H161   1.082       .  S
C159        C160   1.387       .  A
C159        C164   1.482       .  S
C160        H162   1.081       .  S
C163        C164   1.348       .  D
C163        H165   1.088       .  S
C164        H166   1.082       .  S
C167        C168   1.356       .  D
C167        H169   1.086       .  S
C168        H170   1.087       .  S
C171        C172   1.340       .  D
C171        H173   1.087       .  S
C172        H174   1.088       .  S
C175        C176   1.347       .  D
C175        H177   1.088       .  S
C176        H178   1.087       .  S
C179        C180   1.344       .  D
C179        H181   1.088       .  S
C180        H182   1.083       .  S
C183        C184   1.345       .  D
C183        H185   1.087       .  S
C184        H186   1.087       .  S
C187        C188   1.346       .  D
C187        H189   1.084       .  S
C188        H190   1.085       .  S
C191        C192   1.346       .  D
C191        H193   1.088       .  S
C192        C319   1.470       .  S
C192        H194   1.086       .  S
C195        C196   1.350       .  D
C195        H197   1.079       .  S
C196        H198   1.088       .  S
C199        C200   1.350       .  D
C199        H201   1.087       .  S
C200        C305   1.487       .  S
C200        H460   1.082       .  S
H202        C458   1.086       .  S
C203        C204   1.355       .  D
C203        H205   1.086       .  S
C204        H206   1.082       .  S
C207        C410   1.478       .  S
C207        C208   1.350       .  D
C207        H467   1.086       .  S
C208        H210   1.087       .  S
H209        C465   1.087       .  S
C211        C212   1.346       .  D
C211        H213   1.087       .  S
C212        H214   1.086       .  S
C215        C216   1.343       .  D
C215        H217   1.085       .  S
C216        H218   1.088       .  S
C219        C220   1.347       .  D
C219        H221   1.087       .  S
C220        H222   1.087       .  S
C223        C343   1.492   1_554  S
C223        C224   1.354       .  D
C223        H225   1.087       .  S
C224        H226   1.086       .  S
C227        C228   1.349       .  D
C227        H229   1.087       .  S
C228        H230   1.086       .  S
C231        C232   1.342       .  D
C231        H233   1.088       .  S
C232        H234   1.086       .  S
C235        C236   1.344       .  D
C235        H237   1.088       .  S
C236        H238   1.087       .  S
C239        C240   1.351       .  D
C239        H241   1.086       .  S
C240        C377   1.476       .  S
C240        H500   1.087       .  S
H242        C498   1.083       .  S
C243        C244   1.345       .  D
C243        H245   1.087       .  S
C244        H246   1.086       .  S
C247        C248   1.342       .  D
C247        H249   1.086       .  S
C248        H250   1.088       .  S
C251        C272   1.473       .  S
C251        C252   1.345       .  D
C251        H253   1.087       .  S
C252        H254   1.086       .  S
C255        C256   1.344       .  D
C255        H257   1.087       .  S
C256        H258   1.087       .  S
N259        N260   1.322       .  A
N259        C263   1.347       .  A
N259       Cu267   2.083       .  S
N260        C261   1.343       .  A
N260       Cu266   2.060       .  S
C261        C262   1.378       .  A
C261        H264   1.082       .  S
C262        C263   1.388       .  A
C262        C505   1.475       .  S
C263        H265   1.081       .  S
Cu266       N269   2.061       .  S
Cu267       N277   2.083       .  S
Cu268       N270   2.077       .  S
Cu268       N276   2.078       .  S
N269        N270   1.321       .  A
N269        C273   1.343       .  A
N270        C271   1.345       .  A
C271        C272   1.386       .  A
C272        C273   1.379       .  A
C273        H275   1.082       .  S
N276        N277   1.323       .  A
N276        C280   1.346   1_545  A
N277        C278   1.346   1_545  A
C278        C279   1.383       .  A
C278        H281   1.082       .  S
C279        C280   1.386       .  A
C279        C513   1.479       .  S
C280        H282   1.082       .  S
C283        C489   1.539       .  S
C283        C493   1.522       .  S
C283        C497   1.536       .  S
C283        C501   1.530       .  S
C284        C477   1.531       .  S
C284        C482   1.542       .  S
C284        C485   1.545       .  S
C284        C514   1.524       .  S
C285        N286   1.369       .  A
C285        N290   1.352       .  A
C285        C478   1.472       .  S
N286        C287   1.371       .  A
C287        N288   1.362       .  A
C287        C473   1.488       .  S
N288        C289   1.357       .  A
C289        N290   1.345       .  A
C289        C494   1.469       .  S
C291        C461   1.553       .  S
C291        C466   1.532       .  S
C291        C470   1.528       .  S
C291        C474   1.543       .  S
N292        N293   1.327       .  A
N292        C296   1.349       .  A
N292       Cu300   2.108       .  S
N293        C294   1.352       .  A
N293       Cu299   2.106       .  S
C294        C295   1.388       .  A
C294        H297   1.082       .  S
C295        C296   1.386       .  A
C295        C453   1.491       .  S
C296        H298   1.082       .  S
Cu299       N302   2.106       .  S
Cu300       N310   2.105       .  S
Cu301       N303   2.080       .  S
Cu301       N309   2.080       .  S
N302        N303   1.323       .  A
N302        C306   1.354       .  A
N303        C304   1.345       .  A
C304        C305   1.382       .  A
C305        C306   1.392       .  A
C306        H308   1.082       .  S
N309        N310   1.322       .  A
N309        C313   1.345       .  A
N310        C311   1.355       .  A
C311        C312   1.393       .  A
C311        H314   1.082       .  S
C312        C313   1.382       .  A
C312        C462   1.487       .  S
C313        H315   1.082       .  S
N316        N317   1.318       .  A
N316        C320   1.346       .  A
N316       Cu324   2.068       .  S
N317        C318   1.340       .  A
N317       Cu323   2.049       .  S
C318        C319   1.382       .  A
C318        H321   1.082       .  S
C319        C320   1.384       .  A
Cu323       N326   2.049       .  S
Cu324       N334   2.071   1_655  S
Cu325       N327   2.101       .  S
Cu325       N333   2.102   1_655  S
N326        N327   1.323       .  A
N326        C330   1.338       .  A
N327        C328   1.352       .  A
C328        C329   1.392       .  A
C328        H331   1.082       .  S
C329        C330   1.374       .  A
C329        C445   1.475       .  S
C330        H332   1.082       .  S
N333        N334   1.325       .  A
N333        C337   1.352       .  A
N334        C335   1.341       .  A
C335        C336   1.377       .  A
C335        H338   1.082       .  S
C336        C337   1.390       .  A
C336        C490   1.478       .  S
C337        H339   1.082       .  S
N340        N341   1.325       .  A
N340        C344   1.357       .  A
N340       Cu348   2.119   1_455  S
N341        C342   1.346       .  A
N341       Cu347   2.093       .  S
C342        C343   1.384       .  A
C342        H345   1.082       .  S
C343        C344   1.394       .  A
Cu347       N350   2.092       .  S
Cu348       N358   2.120       .  S
Cu349       N351   2.102   1_655  S
Cu349       N357   2.103       .  S
N350        N351   1.322       .  A
N350        C354   1.349       .  A
N351        C352   1.352       .  A
C352        C353   1.389       .  A
C352        H355   1.082       .  S
C353        C354   1.389       .  A
C353        C486   1.493       .  S
C354        H356   1.082       .  S
N357        N358   1.326       .  A
N357        C361   1.348       .  A
N358        C359   1.356       .  A
C359        C360   1.392       .  A
C359        H362   1.082       .  S
C360        C361   1.385       .  A
C360        C441   1.493       .  S
C361        H363   1.082       .  S
N364        N365   1.322       .  A
N364        C368   1.347       .  A
N364       Cu372   2.069       .  S
N365        C366   1.344       .  A
N365       Cu371   2.083       .  S
C366        C367   1.386       .  A
C366        H369   1.082       .  S
C367        C368   1.381       .  A
C367        C502   1.477       .  S
C368        H370   1.082       .  S
Cu371       N374   2.083       .  S
Cu372       N382   2.069       .  S
Cu373       N375   2.071       .  S
Cu373       N381   2.072       .  S
N374        N375   1.322       .  A
N374        C378   1.344       .  A
N375        C376   1.348   1_556  A
C376        C377   1.385       .  A
C377        C378   1.383   1_554  A
C378        H380   1.082       .  S
N381        N382   1.323       .  A
N381        C385   1.342       .  A
N382        C383   1.345       .  A
C383        C384   1.380       .  A
C383        H386   1.082       .  S
C384        C385   1.385       .  A
C384        C438   1.474       .  S
C385        H387   1.081       .  S
C388        C433   1.542       .  S
C388        C442   1.545       .  S
C388        C454   1.542       .  S
C388        C457   1.543       .  S
C389        N390   1.348       .  A
C389        N394   1.366       .  A
C389        C425   1.470       .  S
N390        C391   1.347       .  A
C391        N392   1.363       .  A
C391        C429   1.476       .  S
N392        C393   1.368       .  A
C393        N394   1.369       .  A
C393        C434   1.493       .  S
C395        C430   1.530       .  S
C395        C437   1.521       .  S
C395        C506   1.532       .  S
C395        C510   1.523       .  S
C396        C421   1.549       .  S
C396        C426   1.532       .  S
C396        C446   1.529       .  S
C396        C449   1.530       .  S
N397        N398   1.324       .  A
N397        C401   1.352       .  A
N397       Cu405   2.108   1_565  S
N398        C399   1.342       .  A
N398       Cu404   2.061       .  S
C399        C400   1.379       .  A
C399        H402   1.082       .  S
C400        C401   1.389       .  A
C400        C469   1.481       .  S
C401        H403   1.082       .  S
Cu404       N407   2.060       .  S
Cu405       N415   2.109       .  S
Cu406       N408   2.090   1_545  S
Cu406       N414   2.092       .  S
N407        N408   1.320       .  A
N407        C411   1.345       .  A
N408        C409   1.348   1_556  A
C409        C410   1.387       .  A
C410        C411   1.383   1_554  A
C411        H413   1.082       .  S
N414        N415   1.325       .  A
N414        C418   1.345       .  A
N415        C416   1.354       .  A
C416        C417   1.392       .  A
C416        H419   1.082       .  S
C417        C418   1.383       .  A
C417        C422   1.490       .  S
C418        H420   1.082       .  S
C421        C422   1.353       .  D
C421        H423   1.085       .  S
C422        H424   1.083       .  S
C425        C426   1.341       .  D
C425        H427   1.087       .  S
C426        H428   1.088       .  S
C429        C430   1.341       .  D
C429        H431   1.087       .  S
C430        H432   1.088       .  S
C433        C434   1.354       .  D
C433        H435   1.087       .  S
C434        H436   1.087       .  S
C437        C438   1.346       .  D
C437        H439   1.087       .  S
C438        H440   1.084       .  S
C441        C442   1.353       .  D
C441        H443   1.086       .  S
C442        H444   1.087       .  S
C445        C446   1.344       .  D
C445        H447   1.087       .  S
C446        H448   1.086       .  S
C449        C450   1.345       .  D
C449        H451   1.088       .  S
C450        H452   1.086       .  S
C453        C454   1.352       .  D
C453        H455   1.086       .  S
C454        H456   1.087       .  S
C457        C458   1.350       .  D
C457        H459   1.086       .  S
C461        C462   1.354       .  D
C461        H463   1.087       .  S
C462        H464   1.083       .  S
C465        C466   1.347       .  D
C466        H468   1.086       .  S
C469        C470   1.351       .  D
C469        H471   1.086       .  S
C470        H472   1.089       .  S
C473        C474   1.350       .  D
C473        H475   1.084       .  S
C474        H476   1.087       .  S
C477        C478   1.342       .  D
C477        H479   1.087       .  S
C478        H480   1.088       .  S
C481        C482   1.347       .  D
C481        H483   1.083       .  S
C482        H484   1.087       .  S
C485        C486   1.350       .  D
C485        H487   1.088       .  S
C486        H488   1.086       .  S
C489        C490   1.350       .  D
C489        H491   1.087       .  S
C490        H492   1.084       .  S
C493        C494   1.340       .  D
C493        H495   1.088       .  S
C494        H496   1.087       .  S
C497        C498   1.341       .  D
C497        H499   1.087       .  S
C501        C502   1.345       .  D
C501        H503   1.088       .  S
C502        H504   1.086       .  S
C505        C506   1.344       .  D
C505        H507   1.087       .  S
C506        H508   1.086       .  S
C509        C510   1.349       .  D
C509        H511   1.087       .  S
C510        H512   1.087       .  S
C513        C514   1.347       .  D
C513        H515   1.086       .  S
C514        H516   1.087       .  S
