geometry optimzed in LAMMPS
_audit_creation_date              2020-11-30 
_audit_creation_method            'lammps2cif' 
_symmetry_space_group_name_H-M    'P1' 
_symmetry_Int_Tables_number       1 
_symmetry_cell_setting            triclinic 
loop_ 
_symmetry_equiv_pos_as_xyz 
  x,y,z 
_cell_length_a                    63.36829515 
_cell_length_b                    67.96738110086143 
_cell_length_c                    35.26304946031816 
_cell_angle_alpha                 90.1064480699617 
_cell_angle_beta                  89.39840810370136 
_cell_angle_gamma                 89.94766761750793 
loop_ 
_atom_site_label 
_atom_site_type_symbol 
_atom_site_fract_x 
_atom_site_fract_y 
_atom_site_fract_z 
_atom_site_charge 
O1          O  0.63951453  0.92952897  0.15776665    -0.81100
O2          O  0.63048265  0.83876227  0.12809840    -0.65800
O3          O  0.61843182  0.89362274  0.14176446    -1.12400
C4          C  0.61875595  0.87624436  0.27186141     1.05800
O5          O  0.60406845  0.83122425  0.16679287    -0.79000
O6          O  0.58191177  0.85942685  0.20397934    -0.66600
Ni7        Ni  0.63375373  0.91328309  0.11398341     1.34900
C8          C  0.57680069  0.87748335  0.20299392     0.84500
O9          O  0.62280725  0.86799851  0.07897049    -0.79600
O10         O  0.62892390  0.89984128  0.06689143    -0.89800
C11         C  0.61836239  0.82606606  0.14323636     0.84100
O12         O  0.66114831  0.90183146  0.11790233    -0.68000
O13         O  0.61183527  0.85968918  0.26020281    -0.87300
C14         C  0.66785957  0.88460749  0.12480254     0.84900
C15         C  0.62450775  0.88243408  0.05612687     1.06500
H16         H  0.64044139  0.86267236  0.19494894     0.38300
O17         O  0.62614215  0.86543935  0.18731705    -1.10000
O18         O  0.59045018  0.89114972  0.20127500    -0.66600
Ni19       Ni  0.62083517  0.89271962  0.19599311     1.26300
O20         O  0.65547048  0.87012788  0.13111616    -0.66900
O21         O  0.62366848  0.89047386  0.24992563    -0.79200
C22         C  0.62781490  0.93338822  0.18636278     0.84300
O23         O  0.61662143  0.92031144  0.20232652    -0.66300
Ni24       Ni  0.60836986  0.84662531  0.21214181     1.27400
Ni25       Ni  0.62499895  0.86643169  0.13324222     1.26100
H26         H  0.60380016  0.89533879  0.13526978     0.38800
O27         O  0.63863348  0.92567923  0.66633664    -0.81100
O28         O  0.63177004  0.83632411  0.62485414    -0.65800
O29         O  0.61858399  0.89086799  0.64231137    -1.12400
C30         C  0.61519239  0.87024395  0.77130355     1.05800
O31         O  0.60495395  0.82807595  0.66128483    -0.79000
O32         O  0.58149420  0.85330527  0.70289516    -0.66600
Ni33       Ni  0.63431609  0.91164750  0.61936626     1.34900
C34         C  0.57515693  0.87086694  0.69831714     0.84500
O35         O  0.62622126  0.86730810  0.57774345    -0.79600
O36         O  0.63072335  0.89995876  0.57027298    -0.89800
C37         C  0.61935019  0.82314267  0.63783143     0.84100
O38         O  0.66184608  0.90034643  0.62337363    -0.68000
O39         O  0.61174271  0.85308883  0.75805872    -0.87300
C40         C  0.66869920  0.88295520  0.62805349     0.84900
C41         C  0.62815178  0.88264892  0.55704964     1.06500
H42         H  0.63969795  0.86003288  0.69503337     0.38300
O43         O  0.62545471  0.86201420  0.68628520    -1.10000
O44         O  0.58774425  0.88541354  0.69548183    -0.66600
Ni45       Ni  0.61814746  0.88880934  0.69652168     1.26300
O46         O  0.65655099  0.86810720  0.63265348    -0.66900
O47         O  0.61807370  0.88548012  0.75070094    -0.79200
C48         C  0.62447544  0.92967151  0.69099953     0.84300
O49         O  0.61241011  0.91631266  0.70403561    -0.66300
Ni50       Ni  0.60879382  0.84163418  0.70860894     1.27400
Ni51       Ni  0.62609226  0.86406433  0.63202752     1.26100
H52         H  0.60426184  0.89257295  0.63377031     0.38800
O53         O  0.85773653  0.92544486  0.05414977    -0.81100
O54         O  0.86073036  0.83597577  0.08626567    -0.65800
O55         O  0.87691431  0.88984534  0.07429081    -1.12400
C56         C  0.87975682  0.87150628  0.94370114     1.05800
O57         O  0.88896547  0.82915217  0.05260493    -0.79000
O58         O  0.91265799  0.85308640  0.01123769    -0.66600
Ni59       Ni  0.86226450  0.91053947  0.09981028     1.34900
C60         C  0.91935247  0.87050723  0.01461856     0.84500
O61         O  0.86788362  0.86509157  0.13668793    -0.79600
O62         O  0.86606988  0.89769785  0.14770037    -0.89800
C63         C  0.87317359  0.82336177  0.07169630     0.84100
O64         O  0.83420074  0.90033401  0.09681715    -0.68000
O65         O  0.88304737  0.85413378  0.95610399    -0.87300
C66         C  0.82664811  0.88340937  0.08994918     0.84900
C67         C  0.86710012  0.87990431  0.15902582     1.06500
H68         H  0.85465460  0.86080531  0.01861507     0.38300
O69         O  0.86886888  0.86239415  0.02779378    -1.10000
O70         O  0.90710611  0.88518407  0.01881022    -0.66600
Ni71       Ni  0.87686054  0.88899567  0.01974414     1.26300
O72         O  0.83808366  0.86852091  0.08179930    -0.66900
O73         O  0.87661985  0.88651641  0.96514298    -0.79200
C74         C  0.87172561  0.92956389  0.02932811     0.84300
O75         O  0.88334083  0.91632510  0.01464815    -0.66300
Ni76       Ni  0.88542845  0.84215086  0.00509545     1.27400
Ni77       Ni  0.86811942  0.86328326  0.08217136     1.26100
H78         H  0.89135104  0.89067090  0.08261772     0.38800
O79         O  0.85674151  0.92533190  0.55369629    -0.81100
O80         O  0.86218320  0.83510776  0.59109248    -0.65800
O81         O  0.87720191  0.88951044  0.57286405    -1.12400
C82         C  0.87367140  0.86997386  0.44384554     1.05800
O83         O  0.88667719  0.82573675  0.55039765    -0.79000
O84         O  0.90951565  0.85116321  0.50959519    -0.66600
Ni85       Ni  0.86343126  0.91061104  0.59896188     1.34900
C86         C  0.91664189  0.86856160  0.51104830     0.84500
O87         O  0.87222768  0.86566856  0.63806847    -0.79600
O88         O  0.86965411  0.89847811  0.64651670    -0.89800
C89         C  0.87247839  0.82135304  0.57454622     0.84100
O90         O  0.83543685  0.89993410  0.59970337    -0.68000
O91         O  0.87837961  0.85290935  0.45620805    -0.87300
C92         C  0.82786026  0.88278843  0.59501727     0.84900
C93         C  0.87227083  0.88107073  0.65905308     1.06500
H94         H  0.85233942  0.85951399  0.52323054     0.38300
O95         O  0.86701452  0.86116019  0.52968542    -1.10000
O96         O  0.90475320  0.88369353  0.51370490    -0.66600
Ni97       Ni  0.87446245  0.88803204  0.51888700     1.26300
O98         O  0.83928483  0.86776670  0.58787613    -0.66900
O99         O  0.87114363  0.88505910  0.46509637    -0.79200
C100        C  0.86948699  0.92947684  0.52676435     0.84300
O101        O  0.88039780  0.91585048  0.51104250    -0.66300
Ni102      Ni  0.88202244  0.84044340  0.50457453     1.27400
Ni103      Ni  0.86929216  0.86274612  0.58381057     1.26100
H104        H  0.89194637  0.89068540  0.57888648     0.38800
O105        O  0.85572232  0.07914353  0.42046411    -0.81100
O106        O  0.86147908  0.17106103  0.39164759    -0.65800
O107        O  0.87531941  0.11553390  0.39915473    -1.12400
C108        C  0.87922895  0.13160261  0.53075161     1.05800
O109        O  0.88953370  0.17662774  0.42534690    -0.79000
O110        O  0.91263782  0.15089260  0.46533283    -0.66600
Ni111      Ni  0.85929972  0.09547362  0.37524669     1.34900
C112        C  0.91937138  0.13401035  0.45560116     0.84500
O113        O  0.86606140  0.14160625  0.33853209    -0.79600
O114        O  0.86212939  0.10921822  0.32767629    -0.89800
C115        C  0.87420331  0.18339482  0.40653426     0.84100
O116        O  0.83191088  0.10672618  0.38331561    -0.68000
O117        O  0.88155143  0.14939298  0.51985526    -0.87300
C118        C  0.82523436  0.12405150  0.39006547     0.84900
C119        C  0.86380342  0.12695289  0.31597632     1.06500
H120        H  0.85484923  0.14384750  0.45779625     0.38300
O121        O  0.86900432  0.14249175  0.44766358    -1.10000
O122        O  0.90709333  0.11949654  0.44953680    -0.66600
Ni123      Ni  0.87677958  0.11547012  0.45340240     1.26300
O124        O  0.83735941  0.13867995  0.39593386    -0.66900
O125        O  0.87782641  0.11694814  0.50802862    -0.79200
C126        C  0.86971270  0.07452775  0.44471179     0.84300
O127        O  0.88260896  0.08748913  0.45671462    -0.66300
Ni128      Ni  0.88526449  0.16227544  0.47183595     1.27400
Ni129      Ni  0.86752445  0.14281444  0.39336150     1.26100
H130        H  0.88946210  0.11420627  0.38896424     0.38800
O131        O  0.85679545  0.07431990  0.92529837    -0.81100
O132        O  0.85940044  0.16312176  0.88173168    -0.65800
O133        O  0.87558471  0.10979407  0.90109431    -1.12400
C134        C  0.87526107  0.13198008  0.02926092     1.05800
O135        O  0.88577212  0.17297439  0.91708402    -0.79000
O136        O  0.90984337  0.14904337  0.95837394    -0.66600
Ni137      Ni  0.86129540  0.08820747  0.87809573     1.34900
C138        C  0.91689487  0.13160522  0.95626306     0.84500
O139        O  0.86829166  0.13247895  0.83593940    -0.79600
O140        O  0.86501244  0.09971505  0.82856004    -0.89800
C141        C  0.87073124  0.17688759  0.89481991     0.84100
O142        O  0.83327107  0.09833177  0.88157253    -0.68000
O143        O  0.87935406  0.14890200  0.01531183    -0.87300
C144        C  0.82566179  0.11552959  0.88503141     0.84900
C145        C  0.86735424  0.11706512  0.81532455     1.06500
H146        H  0.85202176  0.14053116  0.95241561     0.38300
O147        O  0.86644297  0.13881293  0.94392266    -1.10000
O148        O  0.90483748  0.11666186  0.95554197    -0.66600
Ni149      Ni  0.87459731  0.11245310  0.95526605     1.26300
O150        O  0.83698797  0.13079713  0.88975287    -0.66900
O151        O  0.87300785  0.11639539  0.00935774    -0.79200
C152        C  0.87029030  0.07150189  0.95116572     0.84300
O153        O  0.88142548  0.08546037  0.96391355    -0.66300
Ni154      Ni  0.88226805  0.15992244  0.96514994     1.27400
Ni155      Ni  0.86698492  0.13609138  0.88986616     1.26100
H156        H  0.89009585  0.10868008  0.89294781     0.38800
O157        O  0.64061080  0.07532447  0.31670027    -0.81100
O158        O  0.62834758  0.16601109  0.35550040    -0.65800
O159        O  0.61954527  0.11126364  0.33415614    -1.12400
C160        C  0.62140168  0.12781182  0.20604736     1.05800
O161        O  0.61586023  0.17874506  0.30198856    -0.79000
O162        O  0.58850548  0.14931929  0.28419239    -0.66600
Ni163      Ni  0.63531743  0.09170363  0.36086367     1.34900
C164        C  0.58184116  0.13181425  0.28044585     0.84500
O165        O  0.61786975  0.13511229  0.39825467    -0.79600
O166        O  0.63108094  0.10508197  0.40864817    -0.89800
C167        C  0.62223341  0.18058471  0.33583509     0.84100
O168        O  0.66222513  0.10358053  0.35380662    -0.68000
O169        O  0.61119959  0.14253099  0.21882921    -0.87300
C170        C  0.66782631  0.12146844  0.35539140     0.84900
C171        C  0.62257896  0.12101586  0.42040072     1.06500
H172        H  0.64539525  0.14275782  0.28706136     0.38300
O173        O  0.63056906  0.14030262  0.29162574    -1.10000
O174        O  0.59417841  0.11726670  0.27387113    -0.66600
Ni175      Ni  0.62441693  0.11320883  0.28099710     1.26300
O176        O  0.65466996  0.13571950  0.35507346    -0.66900
O177        O  0.63023911  0.11564104  0.22792088    -0.79200
C178        C  0.62913620  0.07229758  0.28790496     0.84300
O179        O  0.61865272  0.08600108  0.27274138    -0.66300
Ni180      Ni  0.61425211  0.15893695  0.26330416     1.27400
Ni181      Ni  0.62456928  0.13837086  0.34541821     1.26100
H182        H  0.60479479  0.10858272  0.33904280     0.38800
O183        O  0.63368714  0.07218325  0.81237526    -0.81100
O184        O  0.63455985  0.16220968  0.85410202    -0.65800
O185        O  0.61671049  0.10910936  0.83560160    -1.12400
C186        C  0.61694888  0.12905128  0.70634391     1.05800
O187        O  0.61120213  0.17415694  0.81429361    -0.79000
O188        O  0.58501823  0.14988806  0.77655094    -0.66600
Ni189      Ni  0.63139413  0.08765961  0.85832183     1.34900
C190        C  0.57700738  0.13283671  0.77982922     0.84500
O191        O  0.62278976  0.13248050  0.90016149    -0.79600
O192        O  0.63018066  0.10030864  0.90735231    -0.89800
C193        C  0.62546655  0.17677590  0.83881925     0.84100
O194        O  0.65929368  0.09699568  0.84911409    -0.68000
O195        O  0.61437195  0.14641193  0.71926955    -0.87300
C196        C  0.66716743  0.11403354  0.85167615     0.84900
C197        C  0.62605434  0.11737559  0.92070488     1.06500
H198        H  0.64244568  0.13814500  0.78451865     0.38300
O199        O  0.62775668  0.13735353  0.79199446    -1.10000
O200        O  0.58816925  0.11726571  0.78129589    -0.66600
Ni201      Ni  0.61805861  0.11118501  0.78152885     1.26300
O202        O  0.65566370  0.12940175  0.85094869    -0.66900
O203        O  0.61963846  0.11404105  0.72736496    -0.79200
C204        C  0.62084056  0.07012932  0.78521523     0.84300
O205        O  0.60977433  0.08440585  0.77352869    -0.66300
Ni206      Ni  0.61329557  0.15889337  0.76827798     1.27400
Ni207      Ni  0.62583995  0.13541064  0.84633066     1.26100
H208        H  0.60213741  0.10803410  0.84366255     0.38800
O209        O  0.10987270  0.82699506  0.03940070    -0.81100
O210        O  0.11232769  0.91579633  0.99690832    -0.65800
O211        O  0.12830537  0.86186100  0.01375670    -1.12400
C212        C  0.12895205  0.88274233  0.14298449     1.05800
O213        O  0.13816397  0.92599560  0.03358761    -0.79000
O214        O  0.16189659  0.90184579  0.07767049    -0.66600
Ni215      Ni  0.11270890  0.84066807  0.99202502     1.34900
C216        C  0.16959847  0.88474100  0.07301470     0.84500
O217        O  0.11945203  0.88497113  0.94968962    -0.79600
O218        O  0.11478484  0.85232570  0.94266016    -0.89800
C219        C  0.12399541  0.92960108  0.00924756     0.84100
O220        O  0.08498780  0.85110112  0.99975826    -0.68000
O221        O  0.13021184  0.90019410  0.12982597    -0.87300
C222        C  0.07795701  0.86841532  0.00469644     0.84900
C223        C  0.11713098  0.86958991  0.92916425     1.06500
H224        H  0.10519145  0.89128530  0.06708905     0.38300
O225        O  0.11962144  0.89031606  0.05815190    -1.10000
O226        O  0.15842411  0.86949609  0.06699987    -0.66600
Ni227      Ni  0.12856046  0.86386143  0.06807267     1.26300
O228        O  0.08971767  0.88350883  0.00631443    -0.66900
O229        O  0.12827159  0.86722438  0.12238004    -0.79200
C230        C  0.12537939  0.82267422  0.06021394     0.84300
O231        O  0.13646173  0.83640376  0.07455109    -0.66300
Ni232      Ni  0.13382706  0.91195202  0.08077683     1.27400
Ni233      Ni  0.11958995  0.88837952  0.00395454     1.26100
H234        H  0.14266252  0.86050727  0.00461217     0.38800
O235        O  0.10974339  0.82694856  0.52922871    -0.81100
O236        O  0.10982113  0.91794012  0.50108769    -0.65800
O237        O  0.12695007  0.86411636  0.51231745    -1.12400
C238        C  0.12265033  0.88013482  0.64379842     1.05800
O239        O  0.13396792  0.92765267  0.54183985    -0.79000
O240        O  0.15774247  0.90236351  0.58199331    -0.66600
Ni241      Ni  0.11229237  0.84375315  0.48561426     1.34900
C242        C  0.16598798  0.88547152  0.57778537     0.84500
O243        O  0.12061159  0.88982593  0.45100144    -0.79600
O244        O  0.11398144  0.85806688  0.43879793    -0.89800
C245        C  0.12066899  0.93148790  0.51620798     0.84100
O246        O  0.08426245  0.85268103  0.49531360    -0.68000
O247        O  0.12554405  0.89784259  0.63307632    -0.87300
C248        C  0.07642178  0.86959468  0.50107633     0.84900
C249        C  0.11851577  0.87546132  0.42806065     1.06500
H250        H  0.10113293  0.89127812  0.56700249     0.38300
O251        O  0.11582708  0.89073670  0.55946735    -1.10000
O252        O  0.15511663  0.87009756  0.57074955    -0.66600
Ni253      Ni  0.12511909  0.86417655  0.56670854     1.26300
O254        O  0.08768178  0.88508844  0.50331975    -0.66900
O255        O  0.12212764  0.86543922  0.62108886    -0.79200
C256        C  0.12388701  0.82312940  0.55331744     0.84300
O257        O  0.13345632  0.83689313  0.57061724    -0.66300
Ni258      Ni  0.12938704  0.91156565  0.58612182     1.27400
Ni259      Ni  0.11773672  0.89074973  0.50532024     1.26100
H260        H  0.14160461  0.86334336  0.50465831     0.38800
O261        O  0.38997666  0.83962489  0.14561120    -0.81100
O262        O  0.38178190  0.92765966  0.18650789    -0.65800
O263        O  0.36889836  0.87336736  0.17016812    -1.12400
C264        C  0.36647900  0.89326405  0.04098172     1.05800
O265        O  0.35523986  0.93663898  0.15026439    -0.79000
O266        O  0.33221218  0.91053093  0.10874450    -0.66600
Ni267      Ni  0.38492402  0.85296482  0.19297071     1.34900
C268        C  0.32616834  0.89280304  0.11261961     0.84500
O269        O  0.37589215  0.89704098  0.23414853    -0.79600
O270        O  0.38036835  0.86443250  0.24210794    -0.89800
C271        C  0.36947324  0.94090355  0.17413340     0.84100
O272        O  0.41231199  0.86473914  0.18903405    -0.68000
O273        O  0.36329482  0.91052866  0.05416506    -0.87300
C274        C  0.41877054  0.88218988  0.18333477     0.84900
C275        C  0.37751933  0.88177675  0.25511374     1.06500
H276        H  0.39024681  0.90402667  0.11673120     0.38300
O277        O  0.37594170  0.90203953  0.12566696    -1.10000
O278        O  0.33883781  0.87848136  0.11678129    -0.66600
Ni279      Ni  0.36899448  0.87511863  0.11598845     1.26300
O280        O  0.40633183  0.89663573  0.17827471    -0.66900
O281        O  0.36910078  0.87812840  0.06185080    -0.79200
C282        C  0.37538917  0.83446510  0.12326519     0.84300
O283        O  0.36331597  0.84748747  0.10940238    -0.66300
Ni284      Ni  0.35955173  0.92239268  0.10327049     1.27400
Ni285      Ni  0.37605693  0.90015497  0.17981102     1.26100
H286        H  0.35453285  0.87153191  0.17890942     0.38800
O287        O  0.38490388  0.83871475  0.64999188    -0.81100
O288        O  0.38186036  0.92753237  0.68624133    -0.65800
O289        O  0.36516659  0.87404585  0.67002002    -1.12400
C290        C  0.36716801  0.89245953  0.54065007     1.05800
O291        O  0.35719012  0.93847252  0.64742969    -0.79000
O292        O  0.33228948  0.91222680  0.61036179    -0.66600
Ni293      Ni  0.37884573  0.85300890  0.69570040     1.34900
C294        C  0.32519314  0.89475199  0.60966520     0.84500
O295        O  0.37211500  0.89805797  0.73389631    -0.79600
O296        O  0.37384937  0.86538235  0.74379084    -0.89800
C297        C  0.37052992  0.94143743  0.67362002     0.84100
O298        O  0.40703152  0.86275989  0.69421928    -0.68000
O299        O  0.36224954  0.90951347  0.55324832    -0.87300
C300        C  0.41525907  0.87955690  0.68908461     0.84900
C301        C  0.37207889  0.88304418  0.75562201     1.06500
H302        H  0.39007270  0.90337284  0.61755567     0.38300
O303        O  0.37552877  0.90188308  0.62547514    -1.10000
O304        O  0.33726620  0.87973333  0.61122868    -0.66600
Ni305      Ni  0.36747695  0.87511601  0.61578517     1.26300
O306        O  0.40429047  0.89480769  0.68167308    -0.66900
O307        O  0.37052819  0.87759119  0.56183807    -0.79200
C308        C  0.37176865  0.83411643  0.62462207     0.84300
O309        O  0.36082900  0.84753138  0.60909389    -0.66300
Ni310      Ni  0.36004575  0.92256699  0.60183146     1.27400
Ni311      Ni  0.37419450  0.90043381  0.67962141     1.26100
H312        H  0.35041953  0.87331401  0.67702106     0.38800
O313        O  0.39097601  0.18220975  0.31186843    -0.81100
O314        O  0.38728428  0.09391894  0.26461369    -0.65800
O315        O  0.37282164  0.14763408  0.28492230    -1.12400
C316        C  0.37291309  0.12641491  0.41427373     1.05800
O317        O  0.36353971  0.08278751  0.30566924    -0.79000
O318        O  0.34023275  0.10656074  0.35102149    -0.66600
Ni319      Ni  0.38948962  0.16844879  0.26424819     1.34900
C320        C  0.33191323  0.12322374  0.34469954     0.84500
O321        O  0.37918764  0.12503599  0.21967814    -0.79600
O322        O  0.38869485  0.15688269  0.21427775    -0.89800
C323        C  0.37616401  0.07994775  0.27790433     0.84100
O324        O  0.41655277  0.15740308  0.27435419    -0.68000
O325        O  0.37280444  0.10890491  0.40114746    -0.87300
C326        C  0.42329789  0.13984767  0.27313557     0.84900
C327        C  0.38348057  0.14032317  0.19999966     1.06500
H328        H  0.39656077  0.11838900  0.33532317     0.38300
O329        O  0.38197096  0.11890273  0.32786833    -1.10000
O330        O  0.34261662  0.13873310  0.33790168    -0.66600
Ni331      Ni  0.37239905  0.14506781  0.33901791     1.26300
O332        O  0.41095051  0.12517048  0.27105674    -0.66900
O333        O  0.37248267  0.14173727  0.39334533    -0.79200
C334        C  0.37523740  0.18598035  0.33324437     0.84300
O335        O  0.36396637  0.17207008  0.34647446    -0.66300
Ni336      Ni  0.36860903  0.09708761  0.35217657     1.27400
Ni337      Ni  0.38077065  0.12115259  0.27357958     1.26100
H338        H  0.35857442  0.14958147  0.27616070     0.38800
O339        O  0.38496499  0.18300225  0.80905445    -0.81100
O340        O  0.38116860  0.09365119  0.76865694    -0.65800
O341        O  0.36649458  0.14747926  0.78526238    -1.12400
C342        C  0.36733337  0.12857479  0.91566883     1.05800
O343        O  0.35671315  0.08309336  0.80924361    -0.79000
O344        O  0.33302828  0.10830526  0.85262476    -0.66600
Ni345      Ni  0.38242337  0.16821866  0.76229536     1.34900
C346        C  0.32538203  0.12529706  0.84649177     0.84500
O347        O  0.37347300  0.12371752  0.72156269    -0.79600
O348        O  0.38033910  0.15592750  0.71303897    -0.89800
C349        C  0.36972782  0.07993362  0.78202155     0.84100
O350        O  0.41014716  0.15757147  0.76969353    -0.68000
O351        O  0.36557820  0.11086294  0.90382615    -0.87300
C352        C  0.41705307  0.14007757  0.77270586     0.84900
C353        C  0.37635385  0.13871625  0.70038122     1.06500
H354        H  0.38980297  0.11848368  0.83773228     0.38300
O355        O  0.37532433  0.11931950  0.82992463    -1.10000
O356        O  0.33668335  0.14036706  0.83971996    -0.66600
Ni357      Ni  0.36655473  0.14574350  0.83935645     1.26300
O358        O  0.40489506  0.12518374  0.77462749    -0.66900
O359        O  0.36728227  0.14340635  0.89358610    -0.79200
C360        C  0.37036433  0.18637477  0.83333458     0.84300
O361        O  0.35876557  0.17261648  0.84575589    -0.66300
Ni362      Ni  0.36127209  0.09823353  0.85527099     1.27400
Ni363      Ni  0.37461664  0.12089416  0.77571925     1.26100
H364        H  0.35212414  0.14901872  0.77684440     0.38800
O365        O  0.11326911  0.17723592  0.41396164    -0.81100
O366        O  0.11476162  0.08858270  0.45380151    -0.65800
O367        O  0.13055192  0.14235088  0.44001646    -1.12400
C368        C  0.13313342  0.12457236  0.30904490     1.05800
O369        O  0.13969247  0.07792661  0.41416563    -0.79000
O370        O  0.16475773  0.10265962  0.37205046    -0.66600
Ni371      Ni  0.11362490  0.16300085  0.46102452     1.34900
C372        C  0.17298094  0.11927500  0.37936832     0.84500
O373        O  0.12227204  0.11863291  0.50254255    -0.79600
O374        O  0.11367324  0.15064050  0.50993495    -0.89800
C375        C  0.12598217  0.07472796  0.44017613     0.84100
O376        O  0.08620053  0.15262616  0.45053016    -0.68000
O377        O  0.13336540  0.10667689  0.32019459    -0.87300
C378        C  0.07939117  0.13509833  0.44861812     0.84900
C379        C  0.11837447  0.13375427  0.52324753     1.06500
H380        H  0.10786939  0.11455355  0.38482235     0.38300
O381        O  0.12224970  0.11484160  0.39354571    -1.10000
O382        O  0.16210077  0.13449467  0.38787171    -0.66600
Ni383      Ni  0.13237686  0.14115956  0.38591304     1.26300
O384        O  0.09157529  0.12019547  0.44796369    -0.66900
O385        O  0.13328465  0.13929017  0.33156763    -0.79200
C386        C  0.13022272  0.18178939  0.39656571     0.84300
O387        O  0.14155049  0.16817684  0.38223985    -0.66300
Ni388      Ni  0.13624305  0.09351095  0.36840071     1.27400
Ni389      Ni  0.12188991  0.11585378  0.44805727     1.26100
H390        H  0.14458149  0.14383513  0.45011346     0.38800
O391        O  0.10494380  0.17836307  0.91740340    -0.81100
O392        O  0.11378933  0.08868136  0.95600494    -0.65800
O393        O  0.12583537  0.14344684  0.93897826    -1.12400
C394        C  0.12553789  0.12509721  0.80871549     1.05800
O395        O  0.13689432  0.07845901  0.91264967    -0.79000
O396        O  0.16004432  0.10538294  0.87305657    -0.66600
Ni397      Ni  0.10906839  0.16334734  0.96328264     1.34900
C398        C  0.16688741  0.12282551  0.87724582     0.84500
O399        O  0.12214065  0.11936562  0.00294145    -0.79600
O400        O  0.11256043  0.15091535  0.01184264    -0.89800
C401        C  0.12413581  0.07490366  0.93986855     0.84100
O402        O  0.08204344  0.15146744  0.95597815    -0.68000
O403        O  0.12877446  0.10762147  0.82036632    -0.87300
C404        C  0.07610074  0.13373062  0.95233525     0.84900
C405        C  0.11892690  0.13434071  0.02431764     1.06500
H406        H  0.10277520  0.11338806  0.88756489     0.38300
O407        O  0.11740336  0.11495082  0.89440212    -1.10000
O408        O  0.15487987  0.13768206  0.88242073    -0.66600
Ni409      Ni  0.12470397  0.14202659  0.88493556     1.26300
O410        O  0.08900099  0.11938570  0.95142694    -0.66900
O411        O  0.12320354  0.13983415  0.83077959    -0.79200
C412        C  0.11916489  0.18301802  0.89333359     0.84300
O413        O  0.13091170  0.16970961  0.87883893    -0.66300
Ni414      Ni  0.13239922  0.09450521  0.86811126     1.27400
Ni415      Ni  0.11936484  0.11637413  0.94872387     1.26100
H416        H  0.14026109  0.14569097  0.94646950     0.38800
O417        O  0.93190841  0.36554817  0.40664256    -0.81100
O418        O  0.83374387  0.36861163  0.37703030    -0.65800
O419        O  0.89185019  0.38087430  0.38952334    -1.12400
C420        C  0.87270344  0.37948769  0.52077758     1.05800
O421        O  0.82360285  0.39170869  0.41747046    -0.79000
O422        O  0.85099192  0.41252472  0.46104474    -0.66600
Ni423      Ni  0.91186237  0.36335545  0.36602611     1.34900
C424        C  0.86923096  0.41979630  0.45554046     0.84500
O425        O  0.86507610  0.37642257  0.32849422    -0.79600
O426        O  0.89518871  0.35993357  0.32059598    -0.89800
C427        C  0.81959388  0.37980493  0.39054344     0.84100
O428        O  0.90069456  0.33984189  0.38828420    -0.68000
O429        O  0.85362431  0.38157531  0.51010903    -0.87300
C430        C  0.88193469  0.33355061  0.38519059     0.84900
C431        C  0.87889270  0.36836359  0.30724357     1.06500
H432        H  0.86106118  0.35933797  0.44397381     0.38300
O433        O  0.86202222  0.37291727  0.43628056    -1.10000
O434        O  0.88514803  0.40920144  0.44594900    -0.66600
Ni435      Ni  0.89054564  0.38081139  0.44388805     1.26300
O436        O  0.86654399  0.34533906  0.37943655    -0.66900
O437        O  0.88855082  0.37950941  0.49817546    -0.79200
C438        C  0.93466762  0.37788473  0.43331967     0.84300
O439        O  0.91964308  0.38745957  0.44871765    -0.66300
Ni440      Ni  0.83984270  0.38636708  0.46257765     1.27400
Ni441      Ni  0.86295049  0.37408997  0.38229282     1.26100
H442        H  0.89432444  0.39406445  0.38032210     0.38800
O443        O  0.88421388  0.32516070  0.91291903    -0.81100
O444        O  0.87642375  0.41535441  0.95480737    -0.65800
O445        O  0.86548177  0.36100812  0.93480470    -1.12400
C446        C  0.86989927  0.38148979  0.80510653     1.05800
O447        O  0.85429456  0.42538787  0.91065468    -0.79000
O448        O  0.83399988  0.40049143  0.86443096    -0.66600
Ni449      Ni  0.88262068  0.34142810  0.95792904     1.34900
C450        C  0.82616826  0.38375738  0.87211586     0.84500
O451        O  0.86682611  0.38430223  0.99952943    -0.79600
O452        O  0.88199227  0.35484076  0.00634429    -0.89800
C453        C  0.86580234  0.42886727  0.93910180     0.84100
O454        O  0.90913768  0.35295507  0.94483479    -0.68000
O455        O  0.86886102  0.39906086  0.81761344    -0.87300
C456        C  0.91500159  0.37072902  0.94792181     0.84900
C457        C  0.87315186  0.37015175  0.02027183     1.06500
H458        H  0.89019878  0.39097790  0.88633577     0.38300
O459        O  0.87529843  0.38989717  0.89202368    -1.10000
O460        O  0.83731174  0.36876503  0.88017597    -0.66600
Ni461      Ni  0.86719561  0.36336672  0.88083717     1.26300
O462        O  0.90186966  0.38485455  0.95176596    -0.66900
O463        O  0.86896103  0.36638334  0.82651540    -0.79200
C464        C  0.87095939  0.32218359  0.88658761     0.84300
O465        O  0.86013550  0.33620414  0.87291253    -0.66300
Ni466      Ni  0.86197666  0.41098640  0.86548681     1.27400
Ni467      Ni  0.87150384  0.38787053  0.94598281     1.26100
H468        H  0.85105912  0.35838568  0.94238809     0.38800
O469        O  0.87962538  0.67203255  0.04211619    -0.81100
O470        O  0.87441907  0.58309613  0.01458745    -0.65800
O471        O  0.85882271  0.63658081  0.02825172    -1.12400
C472        C  0.86161361  0.62403824  0.15864146     1.05800
O473        O  0.85619977  0.57129868  0.06408198    -0.79000
O474        O  0.82883138  0.59954179  0.08653366    -0.66600
Ni475      Ni  0.87165064  0.65678444  0.99843184     1.34900
C476        C  0.82120084  0.61676127  0.08840863     0.84500
O477        O  0.86289158  0.61115918  0.96637637    -0.79600
O478        O  0.86456374  0.64332771  0.95253828    -0.89800
C479        C  0.86593626  0.56901215  0.03265129     0.84100
O480        O  0.89960278  0.64663171  0.99530032    -0.68000
O481        O  0.85408123  0.60743297  0.14870369    -0.87300
C482        C  0.90798182  0.63036055  0.00400483     0.84900
C483        C  0.86188388  0.62542117  0.94287563     1.06500
H484        H  0.88565742  0.60871315  0.08066293     0.38300
O485        O  0.87088629  0.61006990  0.07465162    -1.10000
O486        O  0.83282386  0.63208748  0.09012429    -0.66600
Ni487      Ni  0.86287843  0.63702792  0.08170060     1.26300
O488        O  0.89709269  0.61562248  0.01482828    -0.66900
O489        O  0.86791490  0.63681728  0.13493034    -0.79200
C490        C  0.86708971  0.67697448  0.06878286     0.84300
O491        O  0.85592521  0.66425589  0.08580019    -0.66300
Ni492      Ni  0.85562678  0.59093319  0.10372075     1.27400
Ni493      Ni  0.86721148  0.61012781  0.02047908     1.26100
H494        H  0.84394997  0.63719795  0.02310284     0.38800
O495        O  0.88035319  0.67016978  0.55501104    -0.81100
O496        O  0.87339769  0.58098022  0.50504766    -0.65800
O497        O  0.86068643  0.63502746  0.52998318    -1.12400
C498        C  0.85736999  0.61543856  0.65707553     1.05800
O499        O  0.85941499  0.56618778  0.55584509    -0.79000
O500        O  0.82958061  0.59392873  0.57432564    -0.66600
Ni501      Ni  0.87711298  0.65583074  0.50823626     1.34900
C502        C  0.82114966  0.61068782  0.57961818     0.84500
O503        O  0.86404536  0.61297606  0.46344127    -0.79600
O504        O  0.87536590  0.64420554  0.45881643    -0.89800
C505        C  0.86777143  0.56552682  0.52296642     0.84100
O506        O  0.90402438  0.64439496  0.51615292    -0.68000
O507        O  0.85005030  0.59976906  0.64246637    -0.87300
C508        C  0.91041331  0.62682635  0.51257861     0.84900
C509        C  0.86900068  0.62820100  0.44400227     1.06500
H510        H  0.88554955  0.60410265  0.57773647     0.38300
O511        O  0.87088153  0.60561930  0.57139505    -1.10000
O512        O  0.83213633  0.62611832  0.58659002    -0.66600
Ni513      Ni  0.86236321  0.63229974  0.58348338     1.26300
O514        O  0.89791269  0.61217191  0.51107567    -0.66900
O515        O  0.86520997  0.62910206  0.63698604    -0.79200
C516        C  0.86639257  0.67362149  0.58019542     0.84300
O517        O  0.85482775  0.65965992  0.59265921    -0.66300
Ni518      Ni  0.85522754  0.58505701  0.59618638     1.27400
Ni519      Ni  0.86766913  0.60838709  0.51694372     1.26100
H520        H  0.84622299  0.63729603  0.52294291     0.38800
O521        O  0.61777877  0.67868129  0.17729869    -0.81100
O522        O  0.61092588  0.58622950  0.20871249    -0.65800
O523        O  0.62806058  0.63927061  0.18737836    -1.12400
C524        C  0.62051791  0.61951977  0.05995471     1.05800
O525        O  0.63196376  0.57312656  0.16472601    -0.79000
O526        O  0.65689983  0.60046886  0.12948028    -0.66600
Ni527      Ni  0.61364982  0.65942199  0.21571588     1.34900
C528        C  0.66352209  0.61777142  0.12283868     0.84500
O529        O  0.62426109  0.61541936  0.25213409    -0.79600
O530        O  0.60801645  0.64390359  0.26040923    -0.89800
C531        C  0.62037965  0.57150157  0.19429837     0.84100
O532        O  0.58780524  0.65193011  0.19321796    -0.68000
O533        O  0.62783906  0.60330106  0.07231548    -0.87300
C534        C  0.57881334  0.63536712  0.19690480     0.84900
C535        C  0.61630094  0.62842675  0.27362560     1.06500
H536        H  0.60054203  0.60902341  0.14063200     0.38300
O537        O  0.61497476  0.61071575  0.14596366    -1.10000
O538        O  0.65133367  0.63270361  0.12180942    -0.66600
Ni539      Ni  0.62179998  0.63737661  0.13369376     1.26300
O540        O  0.58916159  0.61973801  0.20499984    -0.66900
O541        O  0.61517360  0.63389217  0.08124339    -0.79200
C542        C  0.62285333  0.67985858  0.14257354     0.84300
O543        O  0.62715131  0.66482676  0.12226740    -0.66300
Ni544      Ni  0.62957826  0.58990605  0.12040198     1.27400
Ni545      Ni  0.61913432  0.61289962  0.19909772     1.26100
H546        H  0.64304987  0.64039595  0.19141800     0.38800
O547        O  0.61562657  0.67548974  0.67816581    -0.81100
O548        O  0.61303191  0.58277777  0.70854266    -0.65800
O549        O  0.62783502  0.63645545  0.68859050    -1.12400
C550        C  0.62009077  0.61775938  0.55955653     1.05800
O551        O  0.63300915  0.57056308  0.66225959    -0.79000
O552        O  0.65681420  0.59710926  0.62306055    -0.66600
Ni553      Ni  0.61201343  0.65581014  0.71639444     1.34900
C554        C  0.66382789  0.61458222  0.62137311     0.84500
O555        O  0.62584043  0.61242354  0.75259327    -0.79600
O556        O  0.60705305  0.63952643  0.76035891    -0.89800
C557        C  0.62255777  0.56839916  0.69297276     0.84100
O558        O  0.58651507  0.64726708  0.69423907    -0.68000
O559        O  0.62554073  0.60082010  0.57130106    -0.87300
C560        C  0.57846552  0.63053358  0.70091136     0.84900
C561        C  0.61703010  0.62506278  0.77404531     1.06500
H562        H  0.60025063  0.60676551  0.64169936     0.38300
O563        O  0.61514329  0.60815585  0.64621329    -1.10000
O564        O  0.65221089  0.62981676  0.62488812    -0.66600
Ni565      Ni  0.62255912  0.63490171  0.63485903     1.26300
O566        O  0.58982098  0.61534735  0.70766364    -0.66900
O567        O  0.61676163  0.63233170  0.58166961    -0.79200
C568        C  0.62416800  0.67704146  0.64561129     0.84300
O569        O  0.62928093  0.66216913  0.62549893    -0.66300
Ni570      Ni  0.62879701  0.58731138  0.61866586     1.27400
Ni571      Ni  0.61999593  0.60980532  0.69950639     1.26100
H572        H  0.64268177  0.63828147  0.69334604     0.38800
O573        O  0.60481291  0.33024495  0.33252018    -0.81100
O574        O  0.61529186  0.41926231  0.28886384    -0.65800
O575        O  0.62562741  0.36503537  0.31123554    -1.12400
C576        C  0.62697339  0.38417396  0.43862194     1.05800
O577        O  0.62993563  0.43330560  0.33936068    -0.79000
O578        O  0.65810770  0.40353208  0.35531157    -0.66600
Ni579      Ni  0.60908340  0.34519297  0.28692646     1.34900
C580        C  0.66469346  0.38600617  0.35965737     0.84500
O581        O  0.62426618  0.38829672  0.24599804    -0.79600
O582        O  0.61178653  0.35770135  0.23818757    -0.89800
C583        C  0.62157872  0.43431703  0.30680366     0.84100
O584        O  0.58256649  0.35724281  0.29606357    -0.68000
O585        O  0.63749671  0.39812163  0.42368830    -0.87300
C586        C  0.57693226  0.37506811  0.29389858     0.84900
C587        C  0.61871845  0.37393906  0.22505640     1.06500
H588        H  0.60138211  0.39713133  0.35999049     0.38300
O589        O  0.61596134  0.39459248  0.35368488    -1.10000
O590        O  0.65257949  0.37176190  0.36895535    -0.66600
Ni591      Ni  0.62235301  0.36755538  0.36496444     1.26300
O592        O  0.58990196  0.38932163  0.29330742    -0.66900
O593        O  0.61811625  0.37109307  0.41850113    -0.79200
C594        C  0.61862646  0.32634996  0.35706548     0.84300
O595        O  0.62863928  0.34009642  0.37343972    -0.66300
Ni596      Ni  0.63314806  0.41383008  0.37871470     1.27400
Ni597      Ni  0.62001898  0.39199992  0.29948655     1.26100
H598        H  0.64021575  0.36231282  0.30494954     0.38800
O599        O  0.61306959  0.32434158  0.82240555    -0.81100
O600        O  0.61373545  0.41675371  0.79250092    -0.65800
O601        O  0.62789213  0.36260030  0.80850221    -1.12400
C602        C  0.62591195  0.38156294  0.93872093     1.05800
O603        O  0.63745146  0.42743680  0.83269065    -0.79000
O604        O  0.66069667  0.40067821  0.87035589    -0.66600
Ni605      Ni  0.61118287  0.34350443  0.78250432     1.34900
C606        C  0.66744310  0.38316289  0.86696693     0.84500
O607        O  0.62511872  0.38752806  0.74641089    -0.79600
O608        O  0.60838376  0.35920478  0.73685542    -0.89800
C609        C  0.62479597  0.43063889  0.80564004     0.84100
O610        O  0.58537044  0.35320346  0.80378636    -0.68000
O611        O  0.63003266  0.39870579  0.92608141    -0.87300
C612        C  0.57801447  0.37040133  0.79955309     0.84900
C613        C  0.61727213  0.37477648  0.72452658     1.06500
H614        H  0.60297118  0.39259380  0.86010241     0.38300
O615        O  0.61766857  0.39093700  0.85329558    -1.10000
O616        O  0.65537579  0.36824750  0.86537703    -0.66600
Ni617      Ni  0.62530570  0.36400720  0.86294727     1.26300
O618        O  0.59025946  0.38505597  0.79384073    -0.66900
O619        O  0.62285187  0.36665925  0.91730352    -0.79200
C620        C  0.62352363  0.32207778  0.85268152     0.84300
O621        O  0.63171215  0.33651090  0.87033675    -0.66300
Ni622      Ni  0.63316925  0.41155272  0.87786643     1.27400
Ni623      Ni  0.62058510  0.38955941  0.79956885     1.26100
H624        H  0.64245801  0.36059053  0.80107414     0.38800
O625        O  0.17249043  0.61203136  0.04895762    -0.81100
O626        O  0.07967431  0.61991449  0.00559294    -0.65800
O627        O  0.13727815  0.63212762  0.02249020    -1.12400
C628        C  0.11372721  0.63699918  0.15145765     1.05800
O629        O  0.07070254  0.64617432  0.03902771    -0.79000
O630        O  0.09781242  0.66868666  0.07972929    -0.66600
Ni631      Ni  0.15934594  0.61680524  0.00046473     1.34900
C632        C  0.11689683  0.67396279  0.07469608     0.84500
O633        O  0.11287940  0.62501936  0.95816500    -0.79600
O634        O  0.14803297  0.62125557  0.95046381    -0.89800
C635        C  0.06570029  0.63156894  0.01837954     0.84100
O636        O  0.14656680  0.59122999  0.00243742    -0.68000
O637        O  0.09574782  0.64124566  0.13764281    -0.87300
C638        C  0.12785884  0.58522922  0.00859126     0.84900
C639        C  0.12950066  0.62399743  0.93732606     1.06500
H640        H  0.10318974  0.61378467  0.07645774     0.38300
O641        O  0.10583524  0.62684259  0.06671788    -1.10000
O642        O  0.13189046  0.66152893  0.07334933    -0.66600
Ni643      Ni  0.13444421  0.63316368  0.07666737     1.26300
O644        O  0.11254176  0.59702274  0.01499566    -0.66900
O645        O  0.13027576  0.63382685  0.13117376    -0.79200
C646        C  0.17740449  0.62552084  0.07242778     0.84300
O647        O  0.16370004  0.63786941  0.08360714    -0.66300
Ni648      Ni  0.08434154  0.64358958  0.08735324     1.27400
Ni649      Ni  0.10884026  0.62542283  0.01246447     1.26100
H650        H  0.13939511  0.64533084  0.01309314     0.38800
O651        O  0.17710504  0.61390732  0.54145480    -0.81100
O652        O  0.08215035  0.61747072  0.51125979    -0.65800
O653        O  0.13981623  0.63270280  0.52072070    -1.12400
C654        C  0.11947276  0.63785381  0.65107955     1.05800
O655        O  0.07581059  0.64561315  0.53933474    -0.79000
O656        O  0.10190297  0.66902395  0.57888975    -0.66600
Ni657      Ni  0.16199120  0.61941117  0.49516199     1.34900
C658        C  0.12076961  0.67459536  0.57333913     0.84500
O659        O  0.11382559  0.62209508  0.45927589    -0.79600
O660        O  0.14860909  0.62479912  0.44739577    -0.89800
C661        C  0.06892354  0.63024989  0.52309619     0.84100
O662        O  0.15062876  0.59320912  0.49524753    -0.68000
O663        O  0.10139505  0.64250778  0.63784151    -0.87300
C664        C  0.13342513  0.58546092  0.50657876     0.84900
C665        C  0.12947236  0.62401452  0.43630828     1.06500
H666        H  0.10796263  0.61407816  0.57916337     0.38300
O667        O  0.11024352  0.62688328  0.56798812    -1.10000
O668        O  0.13601036  0.66235816  0.57215683    -0.66600
Ni669      Ni  0.13880332  0.63379397  0.57518939     1.26300
O670        O  0.11779405  0.59588814  0.51836730    -0.66900
O671        O  0.13570344  0.63434607  0.62996920    -0.79200
C672        C  0.18193590  0.62673515  0.56633656     0.84300
O673        O  0.16828158  0.63858841  0.57978737    -0.66300
Ni674      Ni  0.08915296  0.64393735  0.58801448     1.27400
Ni675      Ni  0.11157924  0.62404845  0.51391677     1.26100
H676        H  0.14037658  0.64603013  0.51129312     0.38800
O677        O  0.15108036  0.43152730  0.43147078    -0.81100
O678        O  0.14787346  0.34269609  0.39765415    -0.65800
O679        O  0.13092834  0.39646923  0.41157375    -1.12400
C680        C  0.13051969  0.38082931  0.54216662     1.05800
O681        O  0.12447510  0.33183496  0.43978868    -0.79000
O682        O  0.09868260  0.35848411  0.47419098    -0.66600
Ni683      Ni  0.14455433  0.41735065  0.38549020     1.34900
C684        C  0.09113077  0.37569198  0.47030629     0.84500
O685        O  0.13746988  0.37188200  0.34885197    -0.79600
O686        O  0.13864987  0.40466025  0.33794658    -0.89800
C687        C  0.13778272  0.32862459  0.41317852     0.84100
O688        O  0.17256125  0.40727782  0.38482371    -0.68000
O689        O  0.12770561  0.36320994  0.53081031    -0.87300
C690        C  0.18061703  0.39049075  0.39053305     0.84900
C691        C  0.13659094  0.38683682  0.32684764     1.06500
H692        H  0.15589988  0.36859019  0.46505415     0.38300
O693        O  0.14131173  0.36952719  0.45763331    -1.10000
O694        O  0.10248598  0.39109546  0.46813191    -0.66600
Ni695      Ni  0.13240535  0.39640433  0.46552822     1.26300
O696        O  0.16971211  0.37547845  0.39960509    -0.66900
O697        O  0.13374513  0.39522001  0.51972236    -0.79200
C698        C  0.13702581  0.43708774  0.45506607     0.84300
O699        O  0.12509392  0.42404966  0.46983921    -0.66300
Ni700      Ni  0.12653412  0.34897993  0.48364941     1.27400
Ni701      Ni  0.13984804  0.36997095  0.40324053     1.26100
H702        H  0.11627722  0.39716202  0.40436941     0.38800
O703        O  0.13870996  0.43082170  0.94125862    -0.81100
O704        O  0.13068723  0.34396072  0.89394319    -0.65800
O705        O  0.11766373  0.39838318  0.91283955    -1.12400
C706        C  0.11636545  0.37759696  0.04246983     1.05800
O707        O  0.10493794  0.33536246  0.93269231    -0.79000
O708        O  0.08233536  0.35969442  0.97668114    -0.66600
Ni709      Ni  0.13445172  0.41890510  0.89223415     1.34900
C710        C  0.07467403  0.37663425  0.97042193     0.84500
O711        O  0.12405889  0.37567469  0.84761222    -0.79600
O712        O  0.13098560  0.40821544  0.84215883    -0.89800
C713        C  0.11938985  0.33060025  0.90924757     0.84100
O714        O  0.16169955  0.40706615  0.89462663    -0.68000
O715        O  0.11492393  0.36027662  0.02874569    -0.87300
C716        C  0.16778572  0.38929273  0.89482075     0.84900
C717        C  0.12718909  0.39127596  0.82784552     1.06500
H718        H  0.13968202  0.36840196  0.96414928     0.38300
O719        O  0.12519450  0.36971942  0.95626575    -1.10000
O720        O  0.08644707  0.39166456  0.96544327    -0.66600
Ni721      Ni  0.11672621  0.39634541  0.96703867     1.26300
O722        O  0.15523557  0.37487532  0.89965826    -0.66900
O723        O  0.11626606  0.39301440  0.02162032    -0.79200
C724        C  0.12332204  0.43696465  0.96133645     0.84300
O725        O  0.11023955  0.42415341  0.97367243    -0.66300
Ni726      Ni  0.11013099  0.34878874  0.97974752     1.27400
Ni727      Ni  0.12484465  0.37169377  0.90182007     1.26100
H728        H  0.10352308  0.40052652  0.90377810     0.38800
O729        O  0.37344499  0.43930085  0.32195911    -0.81100
O730        O  0.37419258  0.34623181  0.35468034    -0.65800
O731        O  0.38670577  0.40032717  0.33200689    -1.12400
C732        C  0.37738573  0.38268905  0.20494025     1.05800
O733        O  0.38476419  0.33289675  0.29969750    -0.79000
O734        O  0.41277009  0.36131783  0.27959519    -0.66600
Ni735      Ni  0.37276981  0.42002090  0.36194017     1.34900
C736        C  0.41986117  0.37866268  0.27569231     0.84500
O737        O  0.38823510  0.37628174  0.39637906    -0.79600
O738        O  0.37132754  0.40434994  0.40769501    -0.89800
C739        C  0.37885758  0.33139350  0.33412503     0.84100
O740        O  0.34589197  0.41084459  0.34619477    -0.68000
O741        O  0.38945074  0.36917680  0.21673653    -0.87300
C742        C  0.33857649  0.39384621  0.35349946     0.84900
C743        C  0.38086075  0.38907125  0.41933829     1.06500
H744        H  0.35717149  0.36978930  0.28910777     0.38300
O745        O  0.37211814  0.37173839  0.29171406    -1.10000
O746        O  0.40805596  0.39325036  0.26731271    -0.66600
Ni747      Ni  0.37855414  0.39836759  0.27955942     1.26300
O748        O  0.35051793  0.37880838  0.35761719    -0.66900
O749        O  0.36961463  0.39519443  0.22793925    -0.79200
C750        C  0.37940268  0.44041971  0.28748595     0.84300
O751        O  0.38445321  0.42536205  0.26807350    -0.66300
Ni752      Ni  0.38654401  0.35259229  0.26097499     1.27400
Ni753      Ni  0.37999153  0.37352850  0.34425915     1.26100
H754        H  0.40174264  0.40227371  0.33424336     0.38800
O755        O  0.35749730  0.43528402  0.81269351    -0.81100
O756        O  0.36073104  0.34476216  0.85171167    -0.65800
O757        O  0.37515311  0.39902145  0.83612150    -1.12400
C758        C  0.38052523  0.37832950  0.70647674     1.05800
O759        O  0.38815545  0.33646426  0.81714838    -0.79000
O760        O  0.41231405  0.36083112  0.77712530    -0.66600
Ni761      Ni  0.35787255  0.41914380  0.85801379     1.34900
C762        C  0.41879535  0.37815527  0.78338057     0.84500
O763        O  0.36857471  0.37473929  0.89929837    -0.79600
O764        O  0.35715747  0.40585721  0.90680396    -0.89800
C765        C  0.37258036  0.33153984  0.83776428     0.84100
O766        O  0.33146899  0.40817778  0.84359445    -0.68000
O767        O  0.38309681  0.36109691  0.71990992    -0.87300
C768        C  0.32470984  0.39071832  0.84665118     0.84900
C769        C  0.36288316  0.38919236  0.92000228     1.06500
H770        H  0.35384269  0.36869037  0.78220573     0.38300
O771        O  0.36809051  0.37037662  0.79114778    -1.10000
O772        O  0.40657194  0.39297595  0.78529276    -0.66600
Ni773      Ni  0.37642306  0.39704016  0.78174715     1.26300
O774        O  0.33720465  0.37603313  0.84777189    -0.66900
O775        O  0.37766653  0.39365669  0.72716389    -0.79200
C776        C  0.37190984  0.43845336  0.78799367     0.84300
O777        O  0.38324341  0.42443732  0.77506949    -0.66300
Ni778      Ni  0.38503836  0.34971771  0.76950879     1.27400
Ni779      Ni  0.36760841  0.37210093  0.84545435     1.26100
H780        H  0.38920107  0.40101406  0.84579645     0.38800
O781        O  0.36086206  0.58528010  0.16865557    -0.81100
O782        O  0.36361256  0.67461792  0.13321377    -0.65800
O783        O  0.37999400  0.62093444  0.14690925    -1.12400
C784        C  0.38288891  0.63922698  0.27678739     1.05800
O785        O  0.38920802  0.68496727  0.17009315    -0.79000
O786        O  0.41452069  0.65887806  0.20425628    -0.66600
Ni787      Ni  0.36529068  0.60005342  0.12247592     1.34900
C788        C  0.42108013  0.64135988  0.20002725     0.84500
O789        O  0.37190340  0.64524432  0.08430463    -0.79600
O790        O  0.36884898  0.61263252  0.07414744    -0.89800
C791        C  0.37432977  0.68852907  0.14725872     0.84100
O792        O  0.33746405  0.61050082  0.12736400    -0.68000
O793        O  0.38628088  0.65645170  0.26389138    -0.87300
C794        C  0.33021651  0.62749967  0.13485086     0.84900
C795        C  0.37067136  0.63030357  0.06244249     1.06500
H796        H  0.35700580  0.65039838  0.20206455     0.38300
O797        O  0.37134150  0.64886212  0.19292064    -1.10000
O798        O  0.40913787  0.62642776  0.20020867    -0.66600
Ni799      Ni  0.37936416  0.62203419  0.20117206     1.26300
O800        O  0.34184679  0.64234887  0.14056674    -0.66900
O801        O  0.37901184  0.62438386  0.25565232    -0.79200
C802        C  0.37506206  0.58108356  0.19251692     0.84300
O803        O  0.38642468  0.59467117  0.20627251    -0.66300
Ni804      Ni  0.38730511  0.66945472  0.21570325     1.27400
Ni805      Ni  0.37151481  0.64753550  0.13868628     1.26100
H806        H  0.39447079  0.61986554  0.13826897     0.38800
O807        O  0.36855252  0.58189257  0.66397195    -0.81100
O808        O  0.36710808  0.67354112  0.63027771    -0.65800
O809        O  0.38514099  0.62037008  0.64933464    -1.12400
C810        C  0.37678666  0.63811909  0.77754082     1.05800
O811        O  0.38607053  0.68657106  0.67648660    -0.79000
O812        O  0.41269375  0.65972595  0.70634537    -0.66600
Ni813      Ni  0.37329342  0.59895963  0.62089814     1.34900
C814        C  0.42006856  0.64241678  0.70858142     0.84500
O815        O  0.38176289  0.64490860  0.58489481    -0.79600
O816        O  0.37718165  0.61270603  0.57379770    -0.89800
C817        C  0.37408240  0.68842096  0.64804800     0.84100
O818        O  0.34465927  0.60737030  0.62417854    -0.68000
O819        O  0.38480338  0.65417092  0.76571879    -0.87300
C820        C  0.33642234  0.62438623  0.62547013     0.84900
C821        C  0.38067663  0.63019976  0.56257361     1.06500
H822        H  0.35596260  0.64961956  0.69676707     0.38300
O823        O  0.37087986  0.64818474  0.69178971    -1.10000
O824        O  0.40838753  0.62726316  0.71204884    -0.66600
Ni825      Ni  0.37894800  0.62161864  0.70267005     1.26300
O826        O  0.34691986  0.64012188  0.63027054    -0.66900
O827        O  0.37190900  0.62407086  0.75541926    -0.79200
C828        C  0.37821724  0.57996944  0.69513605     0.84300
O829        O  0.38649425  0.59458268  0.71180951    -0.66300
Ni830      Ni  0.38505506  0.66870821  0.71891684     1.27400
Ni831      Ni  0.37607972  0.64682608  0.63833311     1.26100
H832        H  0.40023849  0.61979627  0.64536083     0.38800
C833        C  0.37066460  0.63332806  0.02097641     0.01100
C834        C  0.35338981  0.62647262  0.99971541     0.03900
C835        C  0.35380806  0.62773523  0.95996192    -0.12100
C836        C  0.37148184  0.63578795  0.94119503     0.23200
C837        C  0.38848890  0.64320914  0.96231797    -0.12700
C838        C  0.38812485  0.64193540  0.00220707     0.04600
C839        C  0.37221471  0.63603228  0.89915743     0.27100
C840        C  0.37981101  0.61950682  0.87904816    -0.13400
C841        C  0.37995583  0.61941535  0.83909151     0.05100
C842        C  0.37333294  0.63630332  0.81909061    -0.09400
C843        C  0.36473377  0.65246840  0.83951456     0.06000
C844        C  0.36423902  0.65230539  0.87937913    -0.13700
Br845      Br  0.41238824  0.65473520  0.93633202    -0.05800
Br846      Br  0.32887829  0.61556175  0.02500244    -0.00200
Br847      Br  0.38930529  0.59608091  0.81253034     0.00300
Br848      Br  0.35257402  0.67433840  0.90723283    -0.04100
Br849      Br  0.41212061  0.65076035  0.03076223     0.00400
Br850      Br  0.33022418  0.61830474  0.93088977    -0.03400
Br851      Br  0.39035260  0.59711775  0.90662986    -0.04300
Br852      Br  0.35231676  0.67449405  0.81315484    -0.00300
C853        C  0.38311264  0.63321457  0.52114357     0.01100
C854        C  0.36987897  0.64654595  0.50190246     0.03900
C855        C  0.37087535  0.64788794  0.46204712    -0.12100
C856        C  0.38423378  0.63521731  0.44109764     0.23200
C857        C  0.39749328  0.62197933  0.46020389    -0.12700
C858        C  0.39723926  0.62123527  0.50008572     0.04600
C859        C  0.38418270  0.63562492  0.39893261     0.27100
C860        C  0.36853249  0.62541066  0.37873066    -0.13400
C861        C  0.36802171  0.62637641  0.33879095     0.05100
C862        C  0.38383787  0.63684785  0.31868413    -0.09400
C863        C  0.40003800  0.64639887  0.33921816     0.06000
C864        C  0.39985547  0.64615862  0.37911087    -0.13700
Br865      Br  0.41563501  0.60451204  0.43146527    -0.05800
Br866      Br  0.34885705  0.66157639  0.52943910    -0.00200
Br867      Br  0.34459834  0.61468421  0.31242678     0.00300
Br868      Br  0.42089823  0.66059260  0.40696794    -0.04100
Br869      Br  0.41654960  0.60390939  0.52578553     0.00400
Br870      Br  0.35373500  0.66688640  0.43584881    -0.03400
Br871      Br  0.34767799  0.61023044  0.40616059    -0.04300
Br872      Br  0.42313175  0.65945245  0.31325311    -0.00300
C873        C  0.37488312  0.45909617  0.77388810     0.01100
C874        C  0.37608305  0.47486898  0.80017348     0.03900
C875        C  0.37789301  0.49449865  0.78745611    -0.12100
C876        C  0.37804712  0.49881604  0.74839305     0.23200
C877        C  0.37714132  0.48317125  0.72202748    -0.12700
C878        C  0.37579906  0.46341676  0.73462693     0.04600
C879        C  0.37839746  0.51986704  0.73544402     0.27100
C880        C  0.35958829  0.53102962  0.73554895    -0.13400
C881        C  0.35985609  0.55100058  0.72456061     0.05100
C882        C  0.37881943  0.55998949  0.71249551    -0.09400
C883        C  0.39774337  0.54900182  0.71317485     0.06000
C884        C  0.39753899  0.52905106  0.72470646    -0.13700
Br885      Br  0.37717039  0.48894983  0.66850232    -0.05800
Br886      Br  0.37593111  0.46979402  0.85407152    -0.00200
Br887      Br  0.33429199  0.56640582  0.72720399     0.00300
Br888      Br  0.42343779  0.51415853  0.72563950    -0.04100
Br889      Br  0.37404556  0.44250107  0.69774579     0.00400
Br890      Br  0.38024243  0.51573564  0.82361730    -0.03400
Br891      Br  0.33331161  0.51880302  0.75029612    -0.04300
Br892      Br  0.42384032  0.56114496  0.69719378    -0.00300
C893        C  0.38256608  0.38633418  0.46127426     0.01100
C894        C  0.38857163  0.40240744  0.48447457     0.03900
C895        C  0.38819221  0.40071074  0.52432949    -0.12100
C896        C  0.38166105  0.38306711  0.54165379     0.23200
C897        C  0.37608433  0.36686876  0.51880079    -0.12700
C898        C  0.37668561  0.36840485  0.47881946     0.04600
C899        C  0.38111437  0.38157394  0.58394302     0.27100
C900        C  0.39830746  0.37328338  0.60324614    -0.13400
C901        C  0.39817600  0.37236841  0.64319754     0.05100
C902        C  0.38100457  0.38021386  0.66440022    -0.09400
C903        C  0.36375245  0.38846775  0.64497128     0.06000
C904        C  0.36378140  0.38904763  0.60492628    -0.13700
Br905      Br  0.36713646  0.34268386  0.54259170    -0.05800
Br906      Br  0.39814402  0.42677428  0.46203062    -0.00200
Br907      Br  0.42186572  0.36050105  0.66855740     0.00300
Br908      Br  0.33990583  0.39979330  0.57852223    -0.04100
Br909      Br  0.36834000  0.34610533  0.44865942     0.00400
Br910      Br  0.39673243  0.42258905  0.55564753    -0.03400
Br911      Br  0.42220109  0.36336122  0.57464062    -0.04300
Br912      Br  0.33938594  0.39776922  0.67299401    -0.00300
C913        C  0.36354407  0.38684806  0.96167349     0.01100
C914        C  0.34473583  0.38562215  0.98326391     0.03900
C915        C  0.34552844  0.38504678  0.02321442    -0.12100
C916        C  0.36515340  0.38556488  0.04168757     0.23200
C917        C  0.38396857  0.38584996  0.01998124    -0.12700
C918        C  0.38316809  0.38645950  0.98010971     0.04600
C919        C  0.36627470  0.38502580  0.08386489     0.27100
C920        C  0.36766959  0.40260800  0.10490630    -0.13400
C921        C  0.37132137  0.40205829  0.14435048     0.05100
C922        C  0.37297002  0.38375161  0.16335680    -0.09400
C923        C  0.37057128  0.36610939  0.14204249     0.06000
C924        C  0.36736809  0.36683504  0.10259069    -0.13700
Br925      Br  0.41087208  0.38523696  0.04509090    -0.05800
Br926      Br  0.31801009  0.38368377  0.95797800    -0.00200
Br927      Br  0.37560261  0.42656693  0.17099705     0.00300
Br928      Br  0.36449502  0.34283228  0.07361234    -0.04100
Br929      Br  0.40900047  0.38701631  0.95065669     0.00400
Br930      Br  0.31983624  0.38323549  0.05276842    -0.03400
Br931      Br  0.36467825  0.42747796  0.07918813    -0.04300
Br932      Br  0.37095123  0.34055894  0.16614356    -0.00300
C933        C  0.37771224  0.56016902  0.20498409     0.01100
C934        C  0.37569652  0.54454542  0.17841856     0.03900
C935        C  0.37705683  0.52477504  0.19034448    -0.12100
C936        C  0.38105232  0.52028748  0.22854391     0.23200
C937        C  0.38383011  0.53569724  0.25482239    -0.12700
C938        C  0.38197365  0.55550776  0.24333025     0.04600
C939        C  0.38065017  0.49941693  0.24175185     0.27100
C940        C  0.36220325  0.49192863  0.25900497    -0.13400
C941        C  0.36177784  0.47259037  0.27323325     0.05100
C942        C  0.37971965  0.46028803  0.26965405    -0.09400
C943        C  0.39793080  0.46752569  0.25078054     0.06000
C944        C  0.39845665  0.48710757  0.23730716    -0.13700
Br945      Br  0.38957604  0.52947104  0.30711783    -0.05800
Br946      Br  0.37187763  0.54978214  0.12505003    -0.00200
Br947      Br  0.33611292  0.46287051  0.29660001     0.00300
Br948      Br  0.42369860  0.49734037  0.21349681    -0.04100
Br949      Br  0.38390686  0.57588702  0.28133906     0.00400
Br950      Br  0.37279211  0.50360658  0.15459624    -0.03400
Br951      Br  0.33735292  0.50830890  0.26286647    -0.04300
Br952      Br  0.42257901  0.45110674  0.24490691    -0.00300
C953        C  0.30133196  0.38772065  0.85146522     0.01100
C954        C  0.28913819  0.40187246  0.87201519     0.03900
C955        C  0.26732921  0.39912665  0.87773797    -0.12100
C956        C  0.25726220  0.38217648  0.86402353     0.23200
C957        C  0.26910751  0.36790109  0.84407562    -0.12700
C958        C  0.29103034  0.37058931  0.83773441     0.04600
C959        C  0.23393633  0.38038652  0.86922034     0.27100
C960        C  0.22528458  0.37301495  0.90341313    -0.13400
C961        C  0.20350082  0.37520632  0.91153355     0.05100
C962        C  0.19041342  0.38536333  0.88599556    -0.09400
C963        C  0.19906717  0.39211439  0.85117907     0.06000
C964        C  0.22057399  0.38919317  0.84253937    -0.13700
Br965      Br  0.25498332  0.34483695  0.82500925    -0.05800
Br966      Br  0.30179307  0.42482712  0.89519776    -0.00200
Br967      Br  0.19197833  0.36568389  0.95884560     0.00300
Br968      Br  0.23211965  0.39802358  0.79460923    -0.04100
Br969      Br  0.30633979  0.35093910  0.80888945     0.00400
Br970      Br  0.25082960  0.41884458  0.90445276    -0.03400
Br971      Br  0.24364451  0.36089750  0.93983749    -0.04300
Br972      Br  0.18175363  0.40587349  0.81508612    -0.00300
C973        C  0.12691482  0.39002985  0.78578089     0.01100
C974        C  0.11598622  0.40443831  0.76462049     0.03900
C975        C  0.11730176  0.40447978  0.72474400    -0.12100
C976        C  0.12886676  0.38976975  0.70561082     0.23200
C977        C  0.13959096  0.37527257  0.72643240    -0.12700
C978        C  0.13902324  0.37561243  0.76637927     0.04600
C979        C  0.12869289  0.38875797  0.66353466     0.27100
C980        C  0.11299633  0.37767717  0.64547264    -0.13400
C981        C  0.11336285  0.37544362  0.60583263     0.05100
C982        C  0.12948313  0.38446352  0.58374414    -0.09400
C983        C  0.14469869  0.39634555  0.60192572     0.06000
C984        C  0.14432622  0.39836090  0.64175501    -0.13700
Br985      Br  0.15505450  0.35491835  0.69983965    -0.05800
Br986      Br  0.09838226  0.42378673  0.78981290    -0.00200
Br987      Br  0.09110725  0.36040304  0.58235931     0.00300
Br988      Br  0.16544054  0.41395262  0.66688641    -0.04100
Br989      Br  0.15627217  0.35721482  0.79396107     0.00400
Br990      Br  0.10319234  0.42463128  0.69596338    -0.03400
Br991      Br  0.09098733  0.36544240  0.67553252    -0.04300
Br992      Br  0.16683415  0.40908435  0.57303343    -0.00300
C993        C  0.11849152  0.37944507  0.08484113     0.01100
C994        C  0.10964076  0.36486308  0.10932933     0.03900
C995        C  0.11313424  0.36550924  0.14870820    -0.12100
C996        C  0.12472788  0.38096545  0.16467104     0.23200
C997        C  0.13294354  0.39587103  0.14115498    -0.12700
C998        C  0.13018928  0.39505469  0.10144647     0.04600
C999        C  0.12757483  0.38183670  0.20652633     0.27100
C1000       C  0.11243596  0.39151466  0.22939624    -0.13400
C1001       C  0.11503666  0.39248723  0.26894339     0.05100
C1002       C  0.13278458  0.38372304  0.28594231    -0.09400
C1003       C  0.14751963  0.37335785  0.26323477     0.06000
C1004       C  0.14498982  0.37254818  0.22356267    -0.13700
Br1005     Br  0.14807726  0.41744564  0.16393590    -0.05800
Br1006     Br  0.09166554  0.34411159  0.09069608    -0.00200
Br1007     Br  0.09382886  0.40527603  0.30006184     0.00300
Br1008     Br  0.16548381  0.35896177  0.19231673    -0.04100
Br1009     Br  0.14367750  0.41505637  0.07077394     0.00400
Br1010     Br  0.10191120  0.34517559  0.18150681    -0.03400
Br1011     Br  0.08812700  0.40346752  0.20627588    -0.04300
Br1012     Br  0.17153430  0.36083983  0.28625758    -0.00300
C1013       C  0.20382143  0.38856783  0.38520669     0.01100
C1014       C  0.21644214  0.37900660  0.41246842     0.03900
C1015       C  0.23859502  0.37878786  0.40819317    -0.12100
C1016       C  0.24820004  0.38795389  0.37668576     0.23200
C1017       C  0.23570484  0.39688121  0.34887081    -0.12700
C1018       C  0.21362642  0.39712971  0.35290572     0.04600
C1019       C  0.27150447  0.38865861  0.37277515     0.27100
C1020       C  0.28273749  0.40446701  0.38852715    -0.13400
C1021       C  0.30467675  0.40593556  0.38279380     0.05100
C1022       C  0.31546360  0.39189492  0.35992452    -0.09400
C1023       C  0.30398914  0.37611515  0.34396922     0.06000
C1024       C  0.28216761  0.37435849  0.35098657    -0.13700
Br1025     Br  0.24908736  0.40904196  0.30534237    -0.05800
Br1026     Br  0.20380592  0.36705929  0.45676756    -0.00200
Br1027     Br  0.31971090  0.42692305  0.40795601     0.00300
Br1028     Br  0.26652588  0.35264425  0.32989065    -0.04100
Br1029     Br  0.19705154  0.40869518  0.31294277     0.00400
Br1030     Br  0.25601650  0.36635273  0.44579470    -0.03400
Br1031     Br  0.26778855  0.42437091  0.41732555    -0.04300
Br1032     Br  0.31731506  0.35764425  0.30989297    -0.00300
C1033       C  0.31355175  0.62599658  0.61892562     0.01100
C1034       C  0.30534365  0.61982345  0.58379612     0.03900
C1035       C  0.28363602  0.62147022  0.57683065    -0.12100
C1036       C  0.26996109  0.62879687  0.60522928     0.23200
C1037       C  0.27808988  0.63504557  0.64025719    -0.12700
C1038       C  0.29991160  0.63383787  0.64699441     0.04600
C1039       C  0.24693445  0.62904057  0.59853218     0.27100
C1040       C  0.23740150  0.64554080  0.58174284    -0.13400
C1041       C  0.21602809  0.64480845  0.57146145     0.05100
C1042       C  0.20390663  0.62790306  0.57955114    -0.09400
C1043       C  0.21317663  0.61190254  0.59854974     0.06000
C1044       C  0.23480410  0.61223717  0.60701301    -0.13700
Br1045     Br  0.25916565  0.64490689  0.67906263    -0.05800
Br1046     Br  0.32383215  0.60942819  0.54468611    -0.00200
Br1047     Br  0.20378220  0.66642470  0.54391712     0.00300
Br1048     Br  0.24810812  0.58945964  0.62904861    -0.04100
Br1049     Br  0.31085613  0.64203754  0.69528660     0.00400
Br1050     Br  0.27247986  0.61366608  0.52833633    -0.03400
Br1051     Br  0.25386869  0.66886913  0.57193026    -0.04300
Br1052     Br  0.19612474  0.58997674  0.61469809    -0.00300
C1053       C  0.13517677  0.45874020  0.46510666     0.01100
C1054       C  0.14176267  0.47341689  0.43859069     0.03900
C1055       C  0.14068604  0.49364855  0.44797645    -0.12100
C1056       C  0.13247950  0.49986661  0.48326042     0.23200
C1057       C  0.12560126  0.48555518  0.50951892    -0.12700
C1058       C  0.12711076  0.46517985  0.50087889     0.04600
C1059       C  0.13169215  0.52149784  0.49276349     0.27100
C1060       C  0.14927978  0.53077820  0.50905521    -0.13400
C1061       C  0.14938678  0.55136419  0.51524263     0.05100
C1062       C  0.13192663  0.56325149  0.50477069    -0.09400
C1063       C  0.11417508  0.55374752  0.48876796     0.06000
C1064       C  0.11401673  0.53305265  0.48323279    -0.13700
Br1065     Br  0.11429372  0.49413298  0.55779116    -0.05800
Br1066     Br  0.15149838  0.46662813  0.38797710    -0.00200
Br1067     Br  0.17380617  0.56294736  0.53842021     0.00300
Br1068     Br  0.08983842  0.52038113  0.46113459    -0.04100
Br1069     Br  0.11899059  0.44650838  0.53960343     0.00400
Br1070     Br  0.15065661  0.51321571  0.41234350    -0.03400
Br1071     Br  0.17365010  0.51512277  0.52173689    -0.04300
Br1072     Br  0.09074399  0.56900320  0.47071476    -0.00300
C1073       C  0.12730315  0.62625264  0.89553472     0.01100
C1074       C  0.11780098  0.64327941  0.88019712     0.03900
C1075       C  0.11623947  0.64557387  0.84050587    -0.12100
C1076       C  0.12437837  0.63102498  0.81580071     0.23200
C1077       C  0.13385251  0.61405403  0.83105310    -0.12700
C1078       C  0.13525210  0.61162783  0.87067677     0.04600
C1079       C  0.12290620  0.63336300  0.77375026     0.27100
C1080       C  0.10582666  0.62511120  0.75410894    -0.13400
C1081       C  0.10506330  0.62610252  0.71416724     0.05100
C1082       C  0.12111895  0.63601122  0.69329826    -0.09400
C1083       C  0.13822569  0.64430031  0.71328198     0.06000
C1084       C  0.13908870  0.64293747  0.75322655    -0.13700
Br1085     Br  0.14488250  0.59407585  0.79731048    -0.05800
Br1086     Br  0.10800087  0.66407144  0.91336814    -0.00200
Br1087     Br  0.08266189  0.61236949  0.68838341     0.00300
Br1088     Br  0.16250359  0.65419536  0.78023440    -0.04100
Br1089     Br  0.14735718  0.58780819  0.89080557     0.00400
Br1090     Br  0.10304792  0.66869531  0.81970509    -0.03400
Br1091     Br  0.08348904  0.61229403  0.78234174    -0.04300
Br1092     Br  0.16041098  0.65799636  0.68663073    -0.00300
C1093       C  0.11491699  0.63503182  0.19339423     0.01100
C1094       C  0.12405127  0.64993425  0.21571374     0.03900
C1095       C  0.12477909  0.64802293  0.25552532    -0.12100
C1096       C  0.11585347  0.63143168  0.27349357     0.23200
C1097       C  0.10580311  0.61697052  0.25139548    -0.12700
C1098       C  0.10557546  0.61863287  0.21149221     0.04600
C1099       C  0.11838151  0.62863565  0.31523209     0.27100
C1100       C  0.13572772  0.61788413  0.32873756    -0.13400
C1101       C  0.13921299  0.61613085  0.36803027     0.05100
C1102       C  0.12536342  0.62535664  0.39457901    -0.09400
C1103       C  0.10780602  0.63607262  0.38071654     0.06000
C1104       C  0.10420275  0.63736951  0.34130076    -0.13700
Br1105     Br  0.09227191  0.59497213  0.27606206    -0.05800
Br1106     Br  0.13466915  0.67340863  0.19202850    -0.00200
Br1107     Br  0.16289202  0.60046773  0.38451722     0.00300
Br1108     Br  0.07985318  0.65123263  0.32261952    -0.04100
Br1109     Br  0.09282646  0.59819163  0.18141937     0.00400
Br1110     Br  0.13804679  0.66812481  0.28572792    -0.03400
Br1111     Br  0.15481390  0.60553362  0.29280988    -0.04300
Br1112     Br  0.08944742  0.65055175  0.41487963    -0.00300
C1113       C  0.30704187  0.63012286  0.13591896     0.01100
C1114       C  0.29754031  0.64640984  0.11773685     0.03900
C1115       C  0.27548765  0.64721111  0.11426383    -0.12100
C1116       C  0.26302874  0.63130816  0.12664075     0.23200
C1117       C  0.27222306  0.61581182  0.14708341    -0.12700
C1118       C  0.29413121  0.61552191  0.15273055     0.04600
C1119       C  0.24098975  0.62967838  0.11358565     0.27100
C1120       C  0.22398505  0.63427039  0.13793717    -0.13400
C1121       C  0.20312585  0.63208047  0.12524744     0.05100
C1122       C  0.19924877  0.62669098  0.08704816    -0.09400
C1123       C  0.21654579  0.62309772  0.06225028     0.06000
C1124       C  0.23724161  0.62378034  0.07597478    -0.13700
Br1125     Br  0.25493047  0.59442560  0.16543871    -0.05800
Br1126     Br  0.31429613  0.66677492  0.09387911    -0.00200
Br1127     Br  0.18028048  0.63561202  0.16131284     0.00300
Br1128     Br  0.26068547  0.61675363  0.04305492    -0.04100
Br1129     Br  0.30625048  0.59524138  0.18411277     0.00400
Br1130     Br  0.26216873  0.66954786  0.09057471    -0.03400
Br1131     Br  0.22945662  0.64400830  0.18835302    -0.04300
Br1132     Br  0.21248708  0.61899626  0.00853006    -0.00300
C1133       C  0.12387093  0.56343729  0.00693218     0.01100
C1134       C  0.10769055  0.55566221  0.98383626     0.03900
C1135       C  0.10545849  0.53505134  0.97912132    -0.12100
C1136       C  0.11973348  0.52191092  0.99628153     0.23200
C1137       C  0.13555433  0.52959242  0.01995490    -0.12700
C1138       C  0.13740717  0.55013099  0.02576322     0.04600
C1139       C  0.11948274  0.50027877  0.98671077     0.27100
C1140       C  0.10796221  0.48667851  0.00882988    -0.13400
C1141       C  0.10898962  0.46616851  0.00097030     0.05100
C1142       C  0.12137558  0.45887160  0.96998682    -0.09400
C1143       C  0.13219557  0.47300348  0.94684743     0.06000
C1144       C  0.13142960  0.49332048  0.95564908    -0.13700
Br1145     Br  0.15527090  0.51181793  0.04331149    -0.05800
Br1146     Br  0.08963350  0.57311992  0.95566860    -0.00200
Br1147     Br  0.09371047  0.44856480  0.03425764     0.00300
Br1148     Br  0.14695076  0.51207205  0.92498703    -0.04100
Br1149     Br  0.15832140  0.55991202  0.06044108     0.00400
Br1150     Br  0.08323580  0.52467644  0.94797426    -0.03400
Br1151     Br  0.09075325  0.49645851  0.05021386    -0.04300
Br1152     Br  0.14767539  0.46558623  0.90132268    -0.00300
C1153       C  0.44177838  0.38088825  0.78899345     0.01100
C1154       C  0.45417170  0.39086098  0.76169544     0.03900
C1155       C  0.47640950  0.39063244  0.76413888    -0.12100
C1156       C  0.48633657  0.38122341  0.79486194     0.23200
C1157       C  0.47381687  0.37245333  0.82351396    -0.12700
C1158       C  0.45166998  0.37199878  0.82027393     0.04600
C1159       C  0.50981245  0.37889272  0.79553850     0.27100
C1160       C  0.51889945  0.36093480  0.78404922    -0.13400
C1161       C  0.54089447  0.35794623  0.78620176     0.05100
C1162       C  0.55439628  0.37323181  0.79939714    -0.09400
C1163       C  0.54500861  0.39136243  0.81085779     0.06000
C1164       C  0.52290523  0.39411249  0.80871545    -0.13700
Br1165     Br  0.48717808  0.36038646  0.86656152    -0.05800
Br1166     Br  0.44071720  0.40404721  0.72001749    -0.00200
Br1167     Br  0.55171421  0.33268501  0.76949805     0.00300
Br1168     Br  0.51029042  0.41879290  0.82398815    -0.04100
Br1169     Br  0.43478866  0.35910479  0.85874018     0.00400
Br1170     Br  0.49335176  0.40212275  0.72422442    -0.03400
Br1171     Br  0.50085124  0.34043462  0.76439080    -0.04300
Br1172     Br  0.56175496  0.41241039  0.83182456    -0.00300
C1173       C  0.55416788  0.37897326  0.28996674     0.01100
C1174       C  0.54278362  0.36832566  0.26245060     0.03900
C1175       C  0.52076732  0.36995642  0.26095464    -0.12100
C1176       C  0.51008394  0.38282267  0.28586031     0.23200
C1177       C  0.52142745  0.39434488  0.31183016    -0.12700
C1178       C  0.54347112  0.39236776  0.31409219     0.04600
C1179       C  0.48682290  0.38362656  0.28536833     0.27100
C1180       C  0.47646697  0.39363032  0.25599494    -0.13400
C1181       C  0.45447971  0.39201044  0.25245077     0.05100
C1182       C  0.44268930  0.38167852  0.28015247    -0.09400
C1183       C  0.45302301  0.37305644  0.31129249     0.06000
C1184       C  0.47511097  0.37325180  0.31291052    -0.13700
Br1185     Br  0.50653347  0.41245222  0.34483879    -0.05800
Br1186     Br  0.55729000  0.35201745  0.22544991    -0.00200
Br1187     Br  0.44109841  0.40226330  0.20767477     0.00300
Br1188     Br  0.48938744  0.35842519  0.35168240    -0.04100
Br1189     Br  0.55847487  0.40736627  0.35152459     0.00400
Br1190     Br  0.50510650  0.35407553  0.22548646    -0.03400
Br1191     Br  0.49263582  0.40891666  0.21992039    -0.04300
Br1192     Br  0.43703011  0.36157637  0.35263969    -0.00300
C1193       C  0.62542699  0.38334464  0.48083133     0.01100
C1194       C  0.62867470  0.36551873  0.50052890     0.03900
C1195       C  0.62622463  0.36482057  0.54031364    -0.12100
C1196       C  0.62173288  0.38210458  0.56102246     0.23200
C1197       C  0.61920252  0.40003994  0.54173343    -0.12700
C1198       C  0.62071391  0.40066033  0.50183527     0.04600
C1199       C  0.62040033  0.38149046  0.60321539     0.27100
C1200       C  0.60069824  0.37946269  0.62174485    -0.13400
C1201       C  0.59960796  0.37805326  0.66158528     0.05100
C1202       C  0.61826368  0.37815864  0.68305764    -0.09400
C1203       C  0.63793438  0.38093977  0.66458705     0.06000
C1204       C  0.63894767  0.38273952  0.62480584    -0.13700
Br1205     Br  0.61369670  0.42378736  0.57035204    -0.05800
Br1206     Br  0.63850796  0.34243625  0.47385116    -0.00200
Br1207     Br  0.57248404  0.37701242  0.68697396     0.00300
Br1208     Br  0.66576913  0.38675916  0.59955912    -0.04100
Br1209     Br  0.61556757  0.42536087  0.47643922     0.00400
Br1210     Br  0.62897067  0.34014521  0.56679429    -0.03400
Br1211     Br  0.57523736  0.37842013  0.59237339    -0.04300
Br1212     Br  0.66368265  0.38141334  0.69339994    -0.00300
C1213       C  0.62016559  0.37583890  0.18320092     0.01100
C1214       C  0.63022815  0.36091470  0.16164987     0.03900
C1215       C  0.63021958  0.36167687  0.12178424    -0.12100
C1216       C  0.62046822  0.37746847  0.10303163     0.23200
C1217       C  0.61062712  0.39253252  0.12435578    -0.12700
C1218       C  0.61032016  0.39167659  0.16434832     0.04600
C1219       C  0.62154261  0.37855154  0.06089306     0.27100
C1220       C  0.63906466  0.38747488  0.04320285    -0.13400
C1221       C  0.64087465  0.38770219  0.00339008     0.05100
C1222       C  0.62484526  0.37935079  0.98070844    -0.09400
C1223       C  0.60725424  0.37037738  0.99861595     0.06000
C1224       C  0.60570143  0.36990984  0.03858778    -0.13700
Br1225     Br  0.59752111  0.41426454  0.09850529    -0.05800
Br1226     Br  0.64487945  0.33969407  0.18656993    -0.00200
Br1227     Br  0.66593932  0.39891004  0.98042671     0.00300
Br1228     Br  0.58176948  0.35764545  0.06313508    -0.04100
Br1229     Br  0.59535107  0.41164401  0.19293576     0.00400
Br1230     Br  0.64368532  0.34108428  0.09251454    -0.03400
Br1231     Br  0.66059056  0.39949296  0.07394226    -0.04300
Br1232     Br  0.58461966  0.35968868  0.96875976    -0.00300
C1233       C  0.44327068  0.63971734  0.70732204     0.01100
C1234       C  0.45552541  0.64885781  0.67861503     0.03900
C1235       C  0.47757731  0.64631176  0.67765284    -0.12100
C1236       C  0.48741990  0.63420461  0.70459605     0.23200
C1237       C  0.47525599  0.62487578  0.73288692    -0.12700
C1238       C  0.45332790  0.62795622  0.73479204     0.04600
C1239       C  0.51072771  0.63228314  0.70477725     0.27100
C1240       C  0.52096325  0.61812789  0.68183953    -0.13400
C1241       C  0.54315973  0.61660651  0.68187409     0.05100
C1242       C  0.55516705  0.62960587  0.70424576    -0.09400
C1243       C  0.54470413  0.64313250  0.72856068     0.06000
C1244       C  0.52260387  0.64456174  0.72853523    -0.13700
Br1245     Br  0.48887328  0.60811481  0.76943083    -0.05800
Br1246     Br  0.44223556  0.66437049  0.63966841    -0.00200
Br1247     Br  0.55683046  0.59707579  0.65053964     0.00300
Br1248     Br  0.50847078  0.66366000  0.76057534    -0.04100
Br1249     Br  0.43758035  0.61734558  0.77707762     0.00400
Br1250     Br  0.49448604  0.65960987  0.63978109    -0.03400
Br1251     Br  0.50443833  0.60124420  0.64969233    -0.04300
Br1252     Br  0.56045453  0.65929599  0.76343259    -0.00300
C1253       C  0.62212000  0.54850042  0.71106741     0.01100
C1254       C  0.60289429  0.54014190  0.72410653     0.03900
C1255       C  0.60243773  0.52071054  0.73835549    -0.12100
C1256       C  0.62115540  0.50955622  0.74045413     0.23200
C1257       C  0.64035923  0.51792060  0.72813713    -0.12700
C1258       C  0.64089812  0.53724019  0.71357405     0.04600
C1259       C  0.62096583  0.48932072  0.75708942     0.27100
C1260       C  0.62311609  0.48682719  0.79647783    -0.13400
C1261       C  0.62405101  0.46778555  0.81233980     0.05100
C1262       C  0.62344784  0.45085240  0.78870890    -0.09400
C1263       C  0.62143384  0.45352336  0.74897719     0.06000
C1264       C  0.61973125  0.47262084  0.73350841    -0.13700
Br1265     Br  0.66605136  0.50275854  0.73163967    -0.05800
Br1266     Br  0.57686510  0.55483011  0.72137219    -0.00200
Br1267     Br  0.62527952  0.46536348  0.86686198     0.00300
Br1268     Br  0.61576936  0.47607538  0.67972223    -0.04100
Br1269     Br  0.66781062  0.54846477  0.69915236     0.00400
Br1270     Br  0.57609700  0.50906153  0.75451780    -0.03400
Br1271     Br  0.62489733  0.50979111  0.82863723    -0.04300
Br1272     Br  0.62266131  0.43141364  0.71462720    -0.00300
C1273       C  0.55539141  0.63482978  0.19334314     0.01100
C1274       C  0.54499398  0.61912338  0.17460591     0.03900
C1275       C  0.52286354  0.61915273  0.17142393    -0.12100
C1276       C  0.51097775  0.63473548  0.18672683     0.23200
C1277       C  0.52108334  0.65065698  0.20426607    -0.12700
C1278       C  0.54311212  0.65065528  0.20815805     0.04600
C1279       C  0.48768429  0.63402938  0.18678943     0.27100
C1280       C  0.47631870  0.64450564  0.15932829    -0.13400
C1281       C  0.45439018  0.64678283  0.16348749     0.05100
C1282       C  0.44380180  0.63808847  0.19455134    -0.09400
C1283       C  0.45497671  0.62622317  0.22026847     0.06000
C1284       C  0.47697111  0.62440463  0.21661654    -0.13700
Br1285     Br  0.50442259  0.67246042  0.22341342    -0.05800
Br1286     Br  0.56031320  0.59758195  0.15193700    -0.00200
Br1287     Br  0.43879986  0.66146765  0.12626037     0.00300
Br1288     Br  0.49261875  0.60928515  0.25314156    -0.04100
Br1289     Br  0.55567445  0.67202232  0.23644819     0.00400
Br1290     Br  0.50849905  0.59793660  0.14587331    -0.03400
Br1291     Br  0.49095797  0.65586129  0.11644340    -0.04300
Br1292     Br  0.44042798  0.61320050  0.26158034    -0.00300
C1293       C  0.61875222  0.62143316  0.01853434     0.01100
C1294       C  0.63663404  0.62675965  0.99694273     0.03900
C1295       C  0.63631495  0.62521627  0.95719633    -0.12100
C1296       C  0.61751941  0.61988546  0.93860922     0.23200
C1297       C  0.59927678  0.61543483  0.96030153    -0.12700
C1298       C  0.60010101  0.61567574  0.00023282     0.04600
C1299       C  0.61666670  0.62075565  0.89643715     0.27100
C1300       C  0.61741441  0.63920866  0.87845332    -0.13400
C1301       C  0.61900958  0.64040395  0.83876573     0.05100
C1302       C  0.61752820  0.62317447  0.81614962    -0.09400
C1303       C  0.61549397  0.60468427  0.83429687     0.06000
C1304       C  0.61596434  0.60345929  0.87426760    -0.13700
Br1305     Br  0.57308175  0.60942780  0.93544226    -0.05800
Br1306     Br  0.66130872  0.63688517  0.02188651    -0.00200
Br1307     Br  0.62475128  0.66585334  0.81637302     0.00300
Br1308     Br  0.61588501  0.57806289  0.89868524    -0.04100
Br1309     Br  0.57577306  0.60810697  0.03012763     0.00400
Br1310     Br  0.66176552  0.63021311  0.92818958    -0.03400
Br1311     Br  0.61597990  0.66303051  0.90850204    -0.04300
Br1312     Br  0.61061302  0.58105671  0.80521827    -0.00300
C1313       C  0.61631266  0.62569240  0.31539955     0.01100
C1314       C  0.59772331  0.62920172  0.33695653     0.03900
C1315       C  0.59821587  0.62852772  0.37685038    -0.12100
C1316       C  0.61707000  0.62371598  0.39554151     0.23200
C1317       C  0.63545746  0.61956144  0.37413258    -0.12700
C1318       C  0.63521000  0.62089800  0.33426173     0.04600
C1319       C  0.61740092  0.62261779  0.43769524     0.27100
C1320       C  0.62647632  0.63788464  0.45917460    -0.13400
C1321       C  0.62768431  0.63627470  0.49895764     0.05100
C1322       C  0.61804888  0.62022539  0.51785122    -0.09400
C1323       C  0.60816071  0.60536571  0.49614551     0.06000
C1324       C  0.60868985  0.60616882  0.45628297    -0.13700
Br1325     Br  0.66103078  0.61204439  0.39965061    -0.05800
Br1326     Br  0.57122590  0.63418687  0.31212179    -0.00200
Br1327     Br  0.64466176  0.65490392  0.52652563     0.00300
Br1328     Br  0.59813618  0.58436558  0.42684994    -0.04100
Br1329     Br  0.66125932  0.61760474  0.30604745     0.00400
Br1330     Br  0.57305881  0.63438041  0.40616580    -0.03400
Br1331     Br  0.63747860  0.66090930  0.43386853    -0.04300
Br1332     Br  0.59320248  0.58401925  0.52058252    -0.00300
C1333       C  0.61947698  0.45405541  0.28911408     0.01100
C1334       C  0.63235601  0.45926643  0.25786722     0.03900
C1335       C  0.63166712  0.47854493  0.24303128    -0.12100
C1336       C  0.61778445  0.49269913  0.25882581     0.23200
C1337       C  0.60440103  0.48727863  0.28929524    -0.12700
C1338       C  0.60540884  0.46811490  0.30464037     0.04600
C1339       C  0.61743056  0.51326435  0.24355554     0.27100
C1340       C  0.62874372  0.52840324  0.26178663    -0.13400
C1341       C  0.62904032  0.54763068  0.24657229     0.05100
C1342       C  0.61843708  0.55181559  0.21252509    -0.09400
C1343       C  0.60680131  0.53676572  0.19472309     0.06000
C1344       C  0.60609860  0.51765560  0.21038992    -0.13700
Br1345     Br  0.58460289  0.50617462  0.30978358    -0.05800
Br1346     Br  0.65158428  0.44013171  0.23638563    -0.00200
Br1347     Br  0.64456629  0.56810164  0.27173026     0.00300
Br1348     Br  0.58956169  0.49738254  0.18656390    -0.04100
Br1349     Br  0.58722079  0.46095838  0.34658646     0.00400
Br1350     Br  0.65011441  0.48575656  0.20151158    -0.03400
Br1351     Br  0.64428141  0.52260387  0.30718428    -0.04300
Br1352     Br  0.59154707  0.54247655  0.14900309    -0.00300
C1353       C  0.93356190  0.62375825  0.50892295     0.01100
C1354       C  0.94540147  0.63581928  0.48383566     0.03900
C1355       C  0.96758398  0.63516172  0.48386601    -0.12100
C1356       C  0.97812086  0.62193206  0.50778303     0.23200
C1357       C  0.96640639  0.60877395  0.53050396    -0.12700
C1358       C  0.94420371  0.60989124  0.53162535     0.04600
C1359       C  0.00138113  0.62329212  0.51188909     0.27100
C1360       C  0.01506302  0.61485916  0.48470318    -0.13400
C1361       C  0.03706747  0.61754380  0.48743544     0.05100
C1362       C  0.04566016  0.62756124  0.51903490    -0.09400
C1363       C  0.03166573  0.63528902  0.54716265     0.06000
C1364       C  0.00970654  0.63376307  0.54270728    -0.13700
Br1365     Br  0.98101886  0.58975681  0.56122963    -0.05800
Br1366     Br  0.93140872  0.65314505  0.44864364    -0.00200
Br1367     Br  0.05477891  0.60872044  0.44597352     0.00300
Br1368     Br  0.99076081  0.64643578  0.57857904    -0.04100
Br1369     Br  0.92887202  0.59359686  0.56691242     0.00400
Br1370     Br  0.98367314  0.65303049  0.45236752    -0.03400
Br1371     Br  0.00341378  0.59975670  0.44352417    -0.04300
Br1372     Br  0.04185122  0.64717162  0.59345756    -0.00300
C1373       C  0.79758038  0.61190126  0.58028743     0.01100
C1374       C  0.78546542  0.59694649  0.59840128     0.03900
C1375       C  0.76348431  0.59912640  0.60286875    -0.12100
C1376       C  0.75327570  0.61607647  0.58942360     0.23200
C1377       C  0.76493673  0.63045207  0.56963366    -0.12700
C1378       C  0.78693772  0.62825124  0.56456814     0.04600
C1379       C  0.73016425  0.61834446  0.59590629     0.27100
C1380       C  0.71592661  0.61202346  0.56803156    -0.13400
C1381       C  0.69417089  0.61136474  0.57624731     0.05100
C1382       C  0.68649372  0.61709856  0.61236609    -0.09400
C1383       C  0.70061961  0.62432241  0.63963407     0.06000
C1384       C  0.72243603  0.62491917  0.63141725    -0.13700
Br1385     Br  0.75060037  0.65316026  0.54955215    -0.05800
Br1386     Br  0.79836209  0.57337859  0.61848139    -0.00200
Br1387     Br  0.67489394  0.60245318  0.53782559     0.00300
Br1388     Br  0.74196750  0.63398278  0.66921072    -0.04100
Br1389     Br  0.80190983  0.64681834  0.53313242     0.00400
Br1390     Br  0.74707353  0.57888273  0.62792034    -0.03400
Br1391     Br  0.72636825  0.60358871  0.51901230    -0.04300
Br1392     Br  0.69025396  0.63224486  0.68891084    -0.00300
C1393       C  0.93155263  0.62887624  0.00163913     0.01100
C1394       C  0.94171487  0.61119064  0.98997455     0.03900
C1395       C  0.96393611  0.61023983  0.98742063    -0.12100
C1396       C  0.97622312  0.62665932  0.99712009     0.23200
C1397       C  0.96638188  0.64427654  0.00833903    -0.12700
C1398       C  0.94425019  0.64548029  0.01060482     0.04600
C1399       C  0.99950167  0.62502802  0.99985684     0.27100
C1400       C  0.00836641  0.61932388  0.03461218    -0.13400
C1401       C  0.03023743  0.62071650  0.03988219     0.05100
C1402       C  0.04330047  0.62794983  0.01053644    -0.09400
C1403       C  0.03467968  0.63250920  0.97498364     0.06000
C1404       C  0.01272353  0.63107856  0.96963367    -0.13700
Br1405     Br  0.98359532  0.66664666  0.02210124    -0.05800
Br1406     Br  0.92578685  0.58803358  0.97685254    -0.00200
Br1407     Br  0.04239658  0.61278784  0.08746615     0.00300
Br1408     Br  0.00059483  0.63811745  0.92164151    -0.04100
Br1409     Br  0.93213065  0.66987571  0.02875931     0.00400
Br1410     Br  0.97788058  0.58637370  0.97109641    -0.03400
Br1411     Br  0.99032055  0.61051176  0.07562050    -0.04300
Br1412     Br  0.05285621  0.64152027  0.93444268    -0.00300
C1413       C  0.85656079  0.61748813  0.69916796     0.01100
C1414       C  0.87468198  0.62325512  0.71952967     0.03900
C1415       C  0.87439594  0.62314210  0.75954692    -0.12100
C1416       C  0.85613300  0.61716172  0.77958730     0.23200
C1417       C  0.83802769  0.61157211  0.75945027    -0.12700
C1418       C  0.83803884  0.61225150  0.71952823     0.04600
C1419       C  0.85562412  0.61789926  0.82183284     0.27100
C1420       C  0.86534799  0.60304071  0.84329863    -0.13400
C1421       C  0.86684910  0.60491112  0.88305461     0.05100
C1422       C  0.85782641  0.62142504  0.90187465    -0.09400
C1423       C  0.84622566  0.63524646  0.88028618     0.06000
C1424       C  0.84578576  0.63382237  0.84047865    -0.13700
Br1425     Br  0.81323431  0.60277104  0.78682015    -0.05800
Br1426     Br  0.90026218  0.63083153  0.69313967    -0.00200
Br1427     Br  0.88237938  0.58514482  0.91037156     0.00300
Br1428     Br  0.83224446  0.65412800  0.81111770    -0.04100
Br1429     Br  0.81198992  0.60762849  0.69320294     0.00400
Br1430     Br  0.89914159  0.63103083  0.78722322    -0.03400
Br1431     Br  0.87697747  0.58026807  0.81776675    -0.04300
Br1432     Br  0.82984301  0.65578597  0.90474940    -0.00300
C1433       C  0.86759898  0.62792847  0.40192651     0.01100
C1434       C  0.85958614  0.64464520  0.38279439     0.03900
C1435       C  0.86061734  0.64575637  0.34300842    -0.12100
C1436       C  0.86803964  0.62962292  0.32165461     0.23200
C1437       C  0.87575473  0.61280716  0.34044310    -0.12700
C1438       C  0.87599227  0.61211966  0.38043879     0.04600
C1439       C  0.86642079  0.62992060  0.27955140     0.27100
C1440       C  0.84651698  0.62773176  0.26252151    -0.13400
C1441       C  0.84483173  0.62778482  0.22280004     0.05100
C1442       C  0.86311787  0.62828594  0.19975980    -0.09400
C1443       C  0.88295675  0.63128999  0.21667210     0.06000
C1444       C  0.88450418  0.63265764  0.25647405    -0.13700
Br1445     Br  0.88611744  0.59071801  0.31123133    -0.05800
Br1446     Br  0.84595697  0.66582330  0.41046784    -0.00200
Br1447     Br  0.81740117  0.62893459  0.19998611    -0.06100
Br1448     Br  0.91130276  0.63834184  0.27949581    -0.04100
Br1449     Br  0.88900729  0.58998695  0.40530692     0.00400
Br1450     Br  0.85218428  0.66959815  0.31747420    -0.03400
Br1451     Br  0.82152926  0.62417767  0.29360446    -0.04300
Br1452     Br  0.90812071  0.63276930  0.18553927    -0.00300
C1453       C  0.79783453  0.61871182  0.09086913     0.01100
C1454       C  0.78634042  0.60684704  0.11688659     0.03900
C1455       C  0.76432210  0.60878359  0.12020899    -0.12100
C1456       C  0.75343705  0.62204264  0.09691217     0.23200
C1457       C  0.76460191  0.63359557  0.07045666    -0.12700
C1458       C  0.78674995  0.63203050  0.06750485     0.04600
C1459       C  0.73009142  0.62295260  0.09952708     0.27100
C1460       C  0.71799140  0.60883031  0.08035213    -0.13400
C1461       C  0.69619160  0.60742928  0.08750318     0.05100
C1462       C  0.68629419  0.62029081  0.11392907    -0.09400
C1463       C  0.69829254  0.63535151  0.13108958     0.06000
C1464       C  0.72017483  0.63657212  0.12399306    -0.13700
Br1465     Br  0.74928316  0.65116980  0.03773344    -0.05800
Br1466     Br  0.80031718  0.58774378  0.14859422    -0.00200
Br1467     Br  0.68004626  0.58813190  0.05974471     0.00300
Br1468     Br  0.73690499  0.65641136  0.14877551    -0.04100
Br1469     Br  0.80129064  0.64700511  0.02911448     0.00400
Br1470     Br  0.74879462  0.59316111  0.15677914    -0.03400
Br1471     Br  0.73158154  0.59111045  0.04481297    -0.04300
Br1472     Br  0.68536149  0.65363972  0.16615108    -0.00300
C1473       C  0.05090399  0.37849976  0.96851801     0.01100
C1474       C  0.04104737  0.39248173  0.94439768     0.03900
C1475       C  0.01884267  0.39258148  0.94012069    -0.12100
C1476       C  0.00607610  0.37914946  0.96019619     0.23200
C1477       C  0.01550396  0.36585285  0.98534594    -0.12700
C1478       C  0.03763011  0.36545623  0.98961109     0.04600
C1479       C  0.98269020  0.37866333  0.95466158     0.27100
C1480       C  0.96912152  0.38925128  0.97919946    -0.13400
C1481       C  0.94700341  0.38710905  0.97659424     0.05100
C1482       C  0.93817655  0.37487308  0.94831272    -0.09400
C1483       C  0.95188606  0.36530956  0.92220830     0.06000
C1484       C  0.97397674  0.36674431  0.92608821    -0.13700
Br1485     Br  0.99773369  0.34791981  0.01380877    -0.05800
Br1486     Br  0.05734528  0.41134195  0.91556036    -0.00200
Br1487     Br  0.92917580  0.39987548  0.01391709     0.00300
Br1488     Br  0.99245682  0.35176689  0.89312447    -0.04100
Br1489     Br  0.04889839  0.34716335  0.02603103     0.00400
Br1490     Br  0.00559953  0.41087729  0.90596046    -0.03400
Br1491     Br  0.98105844  0.40620785  0.01729517    -0.04300
Br1492     Br  0.94055888  0.35093943  0.87980418    -0.00300
C1493       C  0.80286553  0.38167226  0.87131080     0.01100
C1494       C  0.79348120  0.36676421  0.84917455     0.03900
C1495       C  0.77133524  0.36498350  0.84799370    -0.12100
C1496       C  0.75843671  0.37841865  0.86798625     0.23200
C1497       C  0.76772246  0.39335272  0.88993375    -0.12700
C1498       C  0.78983345  0.39493597  0.89179809     0.04600
C1499       C  0.73507351  0.37755343  0.86492917     0.27100
C1500       C  0.72482598  0.38873886  0.83701117    -0.13400
C1501       C  0.70265407  0.39004511  0.83695135     0.05100
C1502       C  0.69058212  0.38012236  0.86484028    -0.09400
C1503       C  0.70084841  0.36810222  0.89162310     0.06000
C1504       C  0.72305315  0.36683882  0.89161176    -0.13700
Br1505     Br  0.74993878  0.41177598  0.91720727    -0.05800
Br1506     Br  0.81080273  0.34983282  0.81774968    -0.00200
Br1507     Br  0.68882694  0.40519184  0.79812597     0.00300
Br1508     Br  0.73720023  0.35096102  0.92885985    -0.04100
Br1509     Br  0.80203576  0.41509897  0.92328287     0.00400
Br1510     Br  0.75852120  0.34437105  0.81851218    -0.03400
Br1511     Br  0.74134629  0.40262516  0.79938087    -0.04300
Br1512     Br  0.68473737  0.35439148  0.93003707    -0.00300
C1513       C  0.86647043  0.44921247  0.95383218     0.01100
C1514       C  0.87989563  0.46306646  0.93622503     0.03900
C1515       C  0.87963922  0.48286132  0.94807214    -0.12100
C1516       C  0.86591064  0.48891672  0.97753487     0.23200
C1517       C  0.85224631  0.47513618  0.99478782    -0.12700
C1518       C  0.85247445  0.45532733  0.98285387     0.04600
C1519       C  0.86620923  0.50968805  0.99085471     0.27100
C1520       C  0.88040872  0.51540872  0.01932717    -0.13400
C1521       C  0.88069510  0.53500265  0.03227902     0.05100
C1522       C  0.86690573  0.54898766  0.01663227    -0.09400
C1523       C  0.85284630  0.54336755  0.98787492     0.06000
C1524       C  0.85247022  0.52372530  0.97503321    -0.13700
Br1525     Br  0.83300844  0.48357089  0.03433147    -0.05800
Br1526     Br  0.89837335  0.45492198  0.89528093    -0.00200
Br1527     Br  0.89993802  0.54279205  0.07157275     0.00300
Br1528     Br  0.83291419  0.51588435  0.93630979    -0.04100
Br1529     Br  0.83309566  0.43672318  0.00519240     0.00400
Br1530     Br  0.89785015  0.50185764  0.92369493    -0.03400
Br1531     Br  0.89927603  0.49625084  0.04083325    -0.04300
Br1532     Br  0.83355700  0.56245697  0.96726205    -0.00300
C1533       C  0.06789221  0.37772482  0.46778731     0.01100
C1534       C  0.05686736  0.36677537  0.44041293     0.03900
C1535       C  0.03471440  0.36711000  0.43970232    -0.12100
C1536       C  0.02340027  0.37961252  0.46445038     0.23200
C1537       C  0.03433905  0.39127282  0.49083789    -0.12700
C1538       C  0.05653075  0.39007091  0.49304186     0.04600
C1539       C  0.00012877  0.38122283  0.46071785     0.27100
C1540       C  0.99163724  0.39388365  0.43316825    -0.13400
C1541       C  0.96986874  0.39358695  0.42577904     0.05100
C1542       C  0.95647283  0.38081662  0.44621359    -0.09400
C1543       C  0.96478031  0.36877520  0.47488625     0.06000
C1544       C  0.98662267  0.36889336  0.48202168    -0.13700
Br1545     Br  0.01879679  0.40895009  0.52358962    -0.05800
Br1546     Br  0.07213824  0.35297170  0.40119911    -0.00200
Br1547     Br  0.95845757  0.40988880  0.38619159     0.00300
Br1548     Br  0.99829671  0.35132445  0.51919539    -0.04100
Br1549     Br  0.07116218  0.40504184  0.53113728     0.00400
Br1550     Br  0.01976132  0.35042026  0.40470087    -0.03400
Br1551     Br  0.01010852  0.41080686  0.40410601    -0.04300
Br1552     Br  0.94629112  0.35139257  0.50278380    -0.00300
C1553       C  0.87637067  0.37681472  0.56181532     0.01100
C1554       C  0.88918419  0.39012360  0.58197327     0.03900
C1555       C  0.89039763  0.38885704  0.62178423    -0.12100
C1556       C  0.87867748  0.37445287  0.64157306     0.23200
C1557       C  0.86693466  0.36044765  0.62124487    -0.12700
C1558       C  0.86589237  0.36154344  0.58146626     0.04600
C1559       C  0.87644964  0.37565968  0.68354816     0.27100
C1560       C  0.88876236  0.36381445  0.70750159    -0.13400
C1561       C  0.88666479  0.36552145  0.74728579     0.05100
C1562       C  0.87183847  0.37882929  0.76329593    -0.09400
C1563       C  0.85898763  0.39014684  0.73893174     0.06000
C1564       C  0.86152479  0.38873509  0.69935785    -0.13700
Br1565     Br  0.85143865  0.34033889  0.64818032    -0.05800
Br1566     Br  0.90377179  0.41104302  0.55562096    -0.00200
Br1567     Br  0.90499047  0.35033115  0.77940951     0.00300
Br1568     Br  0.84436062  0.40467597  0.66634774    -0.04100
Br1569     Br  0.85016678  0.34198337  0.55381105     0.00400
Br1570     Br  0.90721092  0.40746810  0.64968013    -0.03400
Br1571     Br  0.90852423  0.34532799  0.68553825    -0.04300
Br1572     Br  0.83689919  0.40693497  0.75913117    -0.00300
C1573       C  0.87039438  0.37098301  0.06258223     0.01100
C1574       C  0.87190179  0.38891654  0.08308798     0.03900
C1575       C  0.87099693  0.38888654  0.12315095    -0.12100
C1576       C  0.86967656  0.37101426  0.14325086     0.23200
C1577       C  0.86750877  0.35325091  0.12314825    -0.12700
C1578       C  0.86695732  0.35328020  0.08322776     0.04600
C1579       C  0.87171168  0.37073339  0.18539246     0.27100
C1580       C  0.89170138  0.37327394  0.20181225    -0.13400
C1581       C  0.89388847  0.37303010  0.24150256     0.05100
C1582       C  0.87627779  0.36888658  0.26528450    -0.09400
C1583       C  0.85632542  0.36572499  0.24860946     0.06000
C1584       C  0.85396806  0.36733681  0.20896764    -0.13700
Br1585     Br  0.86607871  0.32864805  0.15050416    -0.05800
Br1586     Br  0.87638521  0.41365948  0.05753340    -0.00200
Br1587     Br  0.92100245  0.37967387  0.26271485     0.00300
Br1588     Br  0.82636680  0.36506042  0.18675921    -0.04100
Br1589     Br  0.86007366  0.32888502  0.05777097     0.00400
Br1590     Br  0.87198494  0.41335710  0.15100575    -0.03400
Br1591     Br  0.91627577  0.37686006  0.16964883    -0.04300
Br1592     Br  0.83236573  0.35784295  0.27929991    -0.00300
C1593       C  0.68755479  0.38234040  0.35714492     0.01100
C1594       C  0.69894094  0.37953729  0.39079735     0.03900
C1595       C  0.72098638  0.37776089  0.38938305    -0.12100
C1596       C  0.73177111  0.37859381  0.35427591     0.23200
C1597       C  0.72033903  0.38036116  0.32037448    -0.12700
C1598       C  0.69819234  0.38237058  0.32182733     0.04600
C1599       C  0.75516432  0.37864120  0.35416882     0.27100
C1600       C  0.76601193  0.39667523  0.35618825    -0.13400
C1601       C  0.78752518  0.39699860  0.36563922     0.05100
C1602       C  0.79809745  0.37928767  0.37433985    -0.09400
C1603       C  0.78755014  0.36112643  0.36932381     0.06000
C1604       C  0.76622523  0.36086093  0.35857837    -0.13700
Br1605     Br  0.73511396  0.38013438  0.27233116    -0.05800
Br1606     Br  0.68449505  0.37901201  0.43924110    -0.00200
Br1607     Br  0.80246643  0.42173923  0.36605438     0.00300
Br1608     Br  0.75157708  0.33621535  0.35209775    -0.04100
Br1609     Br  0.68235401  0.38495990  0.27569511     0.00400
Br1610     Br  0.73656967  0.37479080  0.43584921    -0.03400
Br1611     Br  0.75095961  0.42098705  0.34814350    -0.04300
Br1612     Br  0.80131768  0.33653481  0.38065493    -0.00300
C1613       C  0.87173092  0.44156699  0.46285765     0.01100
C1614       C  0.88243596  0.45418933  0.43715280     0.03900
C1615       C  0.88340836  0.47479175  0.44408791    -0.12100
C1616       C  0.87372028  0.48310270  0.47668127     0.23200
C1617       C  0.86367061  0.47048840  0.50289579    -0.12700
C1618       C  0.86272839  0.44998108  0.49625216     0.04600
C1619       C  0.87384705  0.50501875  0.48388834     0.27100
C1620       C  0.88949267  0.51357540  0.50686033    -0.13400
C1621       C  0.88790467  0.53351332  0.51834007     0.05100
C1622       C  0.87106496  0.54547776  0.50597966    -0.09400
C1623       C  0.85575835  0.53708188  0.48201771     0.06000
C1624       C  0.85709344  0.51699281  0.47118492    -0.13700
Br1625     Br  0.85112962  0.48150541  0.54838087    -0.05800
Br1626     Br  0.89496163  0.44354523  0.39147817    -0.00200
Br1627     Br  0.90817475  0.54412187  0.55312755     0.00300
Br1628     Br  0.83534749  0.50545335  0.44048962    -0.04100
Br1629     Br  0.84974788  0.43348239  0.53455822     0.00400
Br1630     Br  0.89794314  0.49183504  0.40891503    -0.03400
Br1631     Br  0.91269032  0.49761178  0.52392689    -0.04300
Br1632     Br  0.83209283  0.55280141  0.46631399    -0.00300
C1633       C  0.12162097  0.20434810  0.88296402     0.01100
C1634       C  0.14164997  0.21361736  0.88347359     0.03900
C1635       C  0.14322941  0.23440092  0.88154323    -0.12100
C1636       C  0.12488190  0.24617265  0.88075491     0.23200
C1637       C  0.10506794  0.23696511  0.87791191    -0.12700
C1638       C  0.10351960  0.21625840  0.87776698     0.04600
C1639       C  0.12598162  0.26799563  0.88704502     0.27100
C1640       C  0.12633952  0.27539227  0.92440314    -0.13400
C1641       C  0.12505780  0.29582393  0.93125859     0.05100
C1642       C  0.12280597  0.30922145  0.90082638    -0.09400
C1643       C  0.12275954  0.30180922  0.86333066     0.06000
C1644       C  0.12480529  0.28133652  0.85648731    -0.13700
Br1645     Br  0.07980278  0.25286765  0.87659846    -0.05800
Br1646     Br  0.16693219  0.19824624  0.89025362    -0.00200
Br1647     Br  0.12673138  0.30534257  0.98281953     0.00300
Br1648     Br  0.12569363  0.27137990  0.80529501    -0.04100
Br1649     Br  0.07643305  0.20444138  0.86909929     0.00400
Br1650     Br  0.17046492  0.24699412  0.88159562    -0.03400
Br1651     Br  0.12795553  0.25730073  0.96646093    -0.04300
Br1652     Br  0.11780715  0.31934869  0.82153017    -0.00300
C1653       C  0.13667361  0.20292241  0.39483821     0.01100
C1654       C  0.14190322  0.21224063  0.36017916     0.03900
C1655       C  0.14527761  0.23284389  0.35905990    -0.12100
C1656       C  0.14376995  0.24422170  0.39255717     0.23200
C1657       C  0.14019870  0.23466840  0.42746894    -0.12700
C1658       C  0.13670992  0.21419659  0.42864299     0.04600
C1659       C  0.14368089  0.26627615  0.39116796     0.27100
C1660       C  0.16167262  0.27733525  0.40106726    -0.13400
C1661       C  0.16027094  0.29803220  0.40550095     0.05100
C1662       C  0.14082069  0.30782416  0.40018097    -0.09400
C1663       C  0.12337506  0.29682542  0.38740468     0.06000
C1664       C  0.12471810  0.27622390  0.38325171    -0.13700
Br1665     Br  0.13939584  0.24984573  0.47382823    -0.05800
Br1666     Br  0.14338382  0.19708801  0.31394062    -0.00200
Br1667     Br  0.18467901  0.31275399  0.42113840     0.00300
Br1668     Br  0.10010618  0.26138920  0.36867038    -0.04100
Br1669     Br  0.13259837  0.20159540  0.47721245     0.00400
Br1670     Br  0.15126411  0.24574813  0.31154382    -0.03400
Br1671     Br  0.18789992  0.26388051  0.41036297    -0.04300
Br1672     Br  0.09754459  0.30995620  0.37482465    -0.00300
C1673       C  0.12479147  0.12814563  0.76711326     0.01100
C1674       C  0.14102849  0.12033773  0.74367146     0.03900
C1675       C  0.13970452  0.12180055  0.70399178    -0.12100
C1676       C  0.12213037  0.13090661  0.68734110     0.23200
C1677       C  0.10628920  0.13934052  0.71056030    -0.12700
C1678       C  0.10762397  0.13805137  0.75037727     0.04600
C1679       C  0.12062336  0.13177791  0.64533066     0.27100
C1680       C  0.13161164  0.14646068  0.62522298    -0.13400
C1681       C  0.13136810  0.14665450  0.58535628     0.05100
C1682       C  0.11975136  0.13231210  0.56515735    -0.09400
C1683       C  0.10866722  0.11762379  0.58543285     0.06000
C1684       C  0.10911110  0.11739585  0.62542985    -0.13700
Br1685     Br  0.08273507  0.15257056  0.68753429    -0.05800
Br1686     Br  0.16562713  0.10814669  0.76558215    -0.00200
Br1687     Br  0.14801625  0.16615938  0.55874632     0.00300
Br1688     Br  0.09380716  0.09749946  0.65327389    -0.04100
Br1689     Br  0.08536073  0.14909117  0.78161001     0.00400
Br1690     Br  0.16207818  0.11141156  0.67213826    -0.03400
Br1691     Br  0.14708338  0.16631098  0.65264459    -0.04300
Br1692     Br  0.09215530  0.09828122  0.55878757    -0.00300
C1693       C  0.12307957  0.13308166  0.06590973     0.01100
C1694       C  0.13384536  0.14866999  0.08435546     0.03900
C1695       C  0.13597946  0.14875091  0.12414003    -0.12100
C1696       C  0.12776531  0.13316271  0.14591613     0.23200
C1697       C  0.11792582  0.11720704  0.12763192    -0.12700
C1698       C  0.11579287  0.11701546  0.08783962     0.04600
C1699       C  0.13036209  0.13287058  0.18790733     0.27100
C1700       C  0.14694803  0.12196484  0.20387034    -0.13400
C1701       C  0.14803254  0.11949249  0.24345684     0.05100
C1702       C  0.13275798  0.12832760  0.26754756    -0.09400
C1703       C  0.11694521  0.14036363  0.25162613     0.06000
C1704       C  0.11569640  0.14251171  0.21190163    -0.13700
Br1705     Br  0.10720235  0.09558908  0.15757138    -0.05800
Br1706     Br  0.14732129  0.16931183  0.05524049    -0.00200
Br1707     Br  0.17086995  0.10433829  0.26451555     0.00300
Br1708     Br  0.09363881  0.15832469  0.19011857    -0.04100
Br1709     Br  0.10272078  0.09464267  0.06413783     0.00400
Br1710     Br  0.15043653  0.17007966  0.14909430    -0.03400
Br1711     Br  0.16819011  0.11041982  0.17110108    -0.04300
Br1712     Br  0.09616546  0.15302746  0.28386831    -0.00300
C1713       C  0.36730545  0.20668916  0.84754353     0.01100
C1714       C  0.34771014  0.21628937  0.84294715     0.03900
C1715       C  0.34607471  0.23670323  0.84941228    -0.12100
C1716       C  0.36400185  0.24755439  0.86011100     0.23200
C1717       C  0.38288537  0.23761339  0.86863291    -0.12700
C1718       C  0.38454833  0.21722390  0.86229181     0.04600
C1719       C  0.36428820  0.26927304  0.85514052     0.27100
C1720       C  0.36741770  0.27691924  0.81841630    -0.13400
C1721       C  0.36911538  0.29730569  0.81289188     0.05100
C1722       C  0.36845121  0.31030374  0.84425801    -0.09400
C1723       C  0.36459236  0.30269339  0.88099097     0.06000
C1724       C  0.36230334  0.28219374  0.88629763    -0.13700
Br1725     Br  0.40690168  0.25218088  0.88665608    -0.05800
Br1726     Br  0.32365391  0.20204746  0.82401828    -0.00200
Br1727     Br  0.37139843  0.30728175  0.76166799     0.00300
Br1728     Br  0.35669178  0.27163699  0.93609239    -0.04100
Br1729     Br  0.41062467  0.20378710  0.87311172     0.00400
Br1730     Br  0.31979439  0.25025157  0.84077178    -0.03400
Br1731     Br  0.36984051  0.25929985  0.77542824    -0.04300
Br1732     Br  0.36359704  0.32004260  0.92433636    -0.00300
C1733       C  0.19007823  0.12587001  0.87460305     0.01100
C1734       C  0.19868911  0.13894502  0.84737476     0.03900
C1735       C  0.22074887  0.14016533  0.84199214    -0.12100
C1736       C  0.23435583  0.12823952  0.86343639     0.23200
C1737       C  0.22581644  0.11554455  0.89120755    -0.12700
C1738       C  0.20380016  0.11447693  0.89699859     0.04600
C1739       C  0.25764999  0.12889437  0.85683997     0.27100
C1740       C  0.26701360  0.11749568  0.82770271    -0.13400
C1741       C  0.28915942  0.11692918  0.82336424     0.05100
C1742       C  0.30210601  0.12764557  0.84827088    -0.09400
C1743       C  0.29268922  0.13975561  0.87634745     0.06000
C1744       C  0.27053472  0.14035557  0.88059061    -0.13700
Br1745     Br  0.24440043  0.09933967  0.92090539    -0.05800
Br1746     Br  0.18038716  0.15445555  0.81573257    -0.00200
Br1747     Br  0.30184292  0.10194097  0.78254742     0.00300
Br1748     Br  0.25768620  0.15652316  0.91952043    -0.04100
Br1749     Br  0.19248728  0.09786641  0.93664307     0.00400
Br1750     Br  0.23246609  0.15794776  0.80476832    -0.03400
Br1751     Br  0.24944157  0.10235633  0.79419628    -0.04300
Br1752     Br  0.31010403  0.15481001  0.91033974    -0.00300
C1753       C  0.37772960  0.31103915  0.34943293     0.01100
C1754       C  0.35851984  0.30307379  0.36308333     0.03900
C1755       C  0.35615947  0.28246898  0.36651747    -0.12100
C1756       C  0.37300342  0.26982291  0.35664956     0.23200
C1757       C  0.39277233  0.27787969  0.34682209    -0.12700
C1758       C  0.39518236  0.29837691  0.34358132     0.04600
C1759       C  0.36976367  0.24817864  0.35298402     0.27100
C1760       C  0.37358952  0.23548505  0.38373510    -0.13400
C1761       C  0.37360316  0.21488128  0.37827587     0.05100
C1762       C  0.37054401  0.20694080  0.34175305    -0.09400
C1763       C  0.36567326  0.21966702  0.31146495     0.06000
C1764       C  0.36500355  0.24016549  0.31718270    -0.13700
Br1765     Br  0.41625868  0.26064567  0.33547321    -0.05800
Br1766     Br  0.33498448  0.32005721  0.37463075    -0.00200
Br1767     Br  0.37903638  0.19768267  0.42028515     0.00300
Br1768     Br  0.35861269  0.25745127  0.27544583    -0.04100
Br1769     Br  0.42249949  0.30909983  0.33043554     0.00400
Br1770     Br  0.32955582  0.27138140  0.38254564    -0.03400
Br1771     Br  0.38014086  0.24649545  0.43262185    -0.04300
Br1772     Br  0.36036266  0.20897397  0.26166678    -0.00300
C1773       C  0.37295574  0.12877711  0.45625708     0.01100
C1774       C  0.38764975  0.14124826  0.47421493     0.03900
C1775       C  0.38741974  0.14325510  0.51407256    -0.12100
C1776       C  0.37344636  0.13190849  0.53643130     0.23200
C1777       C  0.35908129  0.11916684  0.51865919    -0.12700
C1778       C  0.35837716  0.11804261  0.47879504     0.04600
C1779       C  0.37389189  0.13328805  0.57864208     0.27100
C1780       C  0.38887611  0.12245695  0.59932639    -0.13400
C1781       C  0.38961138  0.12409270  0.63917155     0.05100
C1782       C  0.37503693  0.13623117  0.65867963    -0.09400
C1783       C  0.35965092  0.14662289  0.63803262     0.06000
C1784       C  0.35922782  0.14531501  0.59813901    -0.13700
Br1785     Br  0.34052254  0.10302980  0.54920204    -0.05800
Br1786     Br  0.40926253  0.15434968  0.44480154    -0.00200
Br1787     Br  0.41126879  0.11046130  0.66685760     0.00300
Br1788     Br  0.33865595  0.16009371  0.56994419    -0.04100
Br1789     Br  0.33659927  0.10243308  0.45535949     0.00400
Br1790     Br  0.40620878  0.16158873  0.53833021    -0.03400
Br1791     Br  0.40836931  0.10534008  0.57287009    -0.04300
Br1792     Br  0.33860508  0.16209915  0.66451598    -0.00300
C1793       C  0.38165005  0.13938260  0.15824656     0.01100
C1794       C  0.39660040  0.12903665  0.13604370     0.03900
C1795       C  0.39492952  0.12883503  0.09614825    -0.12100
C1796       C  0.37837750  0.13909347  0.07830642     0.23200
C1797       C  0.36402656  0.15014855  0.10053526    -0.12700
C1798       C  0.36546491  0.15004662  0.14035444     0.04600
C1799       C  0.37513552  0.13713860  0.03658980     0.27100
C1800       C  0.38714291  0.14834241  0.01065220    -0.13400
C1801       C  0.38470579  0.14558325  0.97122613     0.05100
C1802       C  0.36962538  0.13201629  0.95731923    -0.09400
C1803       C  0.35690968  0.12152239  0.98362514     0.06000
C1804       C  0.35989293  0.12388352  0.02294133    -0.13700
Br1805     Br  0.34249626  0.16558077  0.07623377    -0.05800
Br1806     Br  0.41965393  0.11565805  0.16033545    -0.00200
Br1807     Br  0.40314497  0.15965958  0.93684409     0.00300
Br1808     Br  0.34303207  0.10889273  0.05852047    -0.04100
Br1809     Br  0.34471547  0.16394436  0.17066875     0.00400
Br1810     Br  0.41536310  0.11462547  0.06580406    -0.03400
Br1811     Br  0.40687103  0.16757285  0.02944115    -0.04300
Br1812     Br  0.33451040  0.10455593  0.96637145    -0.00300
C1813       C  0.30852259  0.12445309  0.34668102     0.01100
C1814       C  0.29606433  0.11221926  0.32348304     0.03900
C1815       C  0.27393779  0.11168345  0.32843144    -0.12100
C1816       C  0.26408953  0.12323933  0.35679596     0.23200
C1817       C  0.27648628  0.13570438  0.37953959    -0.12700
C1818       C  0.29859194  0.13639672  0.37441773     0.04600
C1819       C  0.24072509  0.12228510  0.36289818     0.27100
C1820       C  0.22731800  0.13528892  0.34348226    -0.13400
C1821       C  0.20529579  0.13480385  0.34996070     0.05100
C1822       C  0.19638905  0.12108286  0.37569819    -0.09400
C1823       C  0.20989397  0.10794213  0.39484379     0.06000
C1824       C  0.23192984  0.10854775  0.38845966    -0.13700
Br1825     Br  0.26309692  0.15143045  0.41851366    -0.05800
Br1826     Br  0.30931355  0.09644079  0.28434295    -0.00200
Br1827     Br  0.18736458  0.15228579  0.32161784     0.00300
Br1828     Br  0.25020259  0.09030272  0.41415885    -0.04100
Br1829     Br  0.31534542  0.15287422  0.40706165     0.00400
Br1830     Br  0.25702121  0.09494743  0.29668346    -0.03400
Br1831     Br  0.23925352  0.15331988  0.30691776    -0.04300
Br1832     Br  0.19833948  0.08944286  0.43078070    -0.00300
C1833       C  0.36995251  0.81276813  0.61407657     0.01100
C1834       C  0.35011938  0.80388316  0.60692188     0.03900
C1835       C  0.34817561  0.78310747  0.60642335    -0.12100
C1836       C  0.36585800  0.77106588  0.61338934     0.23200
C1837       C  0.38580281  0.77982719  0.61775465    -0.12700
C1838       C  0.38797038  0.80044088  0.61700225     0.04600
C1839       C  0.36368986  0.74935340  0.61925878     0.27100
C1840       C  0.35811846  0.74214963  0.65545784    -0.13400
C1841       C  0.35999788  0.72193445  0.66360194     0.05100
C1842       C  0.36846784  0.70879581  0.63623486    -0.09400
C1843       C  0.37313248  0.71585372  0.59944919     0.06000
C1844       C  0.37018813  0.73597497  0.59076039    -0.13700
Br1845     Br  0.41011945  0.76345795  0.62749178    -0.05800
Br1846     Br  0.32518700  0.81974580  0.60004053    -0.00200
Br1847     Br  0.35102139  0.71226939  0.71269232     0.00300
Br1848     Br  0.37609832  0.74558451  0.54037396    -0.04100
Br1849     Br  0.41606664  0.81147832  0.61933023     0.00400
Br1850     Br  0.32112019  0.77095773  0.59811161    -0.03400
Br1851     Br  0.34931007  0.76025579  0.69481833    -0.04300
Br1852     Br  0.38580283  0.69861719  0.56224527    -0.00300
C1853       C  0.37188364  0.96143178  0.69075330     0.01100
C1854       C  0.35481531  0.96894153  0.71232305     0.03900
C1855       C  0.35529151  0.98840883  0.72631350    -0.12100
C1856       C  0.37286515  0.00063073  0.71889291     0.23200
C1857       C  0.39008517  0.99304866  0.69767855    -0.12700
C1858       C  0.38961092  0.97351843  0.68375763     0.04600
C1859       C  0.37327538  0.02121146  0.73428811     0.27100
C1860       C  0.36849666  0.03742765  0.71087486    -0.13400
C1861       C  0.36766204  0.05666587  0.72616392     0.05100
C1862       C  0.37120044  0.05983191  0.76522482    -0.09400
C1863       C  0.37625674  0.04362297  0.78846493     0.06000
C1864       C  0.37755274  0.02449055  0.77297664    -0.13700
Br1865     Br  0.41430268  0.00948981  0.68768712    -0.05800
Br1866     Br  0.33095229  0.95226663  0.72357865    -0.00200
Br1867     Br  0.36055373  0.07849302  0.69377791     0.00300
Br1868     Br  0.38535539  0.00262571  0.80473847    -0.04100
Br1869     Br  0.41299258  0.96344989  0.65410837     0.00400
Br1870     Br  0.33173553  0.99844038  0.75562376    -0.03400
Br1871     Br  0.36259010  0.03319118  0.65792523    -0.04300
Br1872     Br  0.38212478  0.04765795  0.84152919    -0.00300
C1873       C  0.36989125  0.70933115  0.13733648     0.01100
C1874       C  0.37050135  0.71590879  0.09936822     0.03900
C1875       C  0.36852348  0.73618352  0.09127808    -0.12100
C1876       C  0.36656229  0.74996014  0.12108878     0.23200
C1877       C  0.36496867  0.74327780  0.15880327    -0.12700
C1878       C  0.36621504  0.72304950  0.16682013     0.04600
C1879       C  0.36840808  0.77149407  0.11379953     0.27100
C1880       C  0.38854860  0.78014656  0.11233926    -0.13400
C1881       C  0.39066865  0.80074447  0.11125126     0.05100
C1882       C  0.37268775  0.81306840  0.11448415    -0.09400
C1883       C  0.35238351  0.80427309  0.11435668     0.06000
C1884       C  0.35034593  0.78356870  0.11284033    -0.13700
Br1885     Br  0.36209824  0.76202671  0.19976933    -0.05800
Br1886     Br  0.37560565  0.69745311  0.05869012    -0.00200
Br1887     Br  0.41847353  0.81173284  0.10470792     0.00300
Br1888     Br  0.32283794  0.77148367  0.11143573    -0.04100
Br1889     Br  0.36239889  0.71411365  0.21842029     0.00400
Br1890     Br  0.36909145  0.74529918  0.03956470    -0.03400
Br1891     Br  0.41337013  0.76366098  0.11462976    -0.04300
Br1892     Br  0.32721629  0.82002870  0.12053881    -0.00300
C1893       C  0.36690918  0.89095839  0.99905330     0.01100
C1894       C  0.38214703  0.87880052  0.98095411     0.03900
C1895       C  0.38260653  0.87717270  0.94110623    -0.12100
C1896       C  0.36868184  0.88842379  0.91905431     0.23200
C1897       C  0.35363647  0.90064103  0.93684598    -0.12700
C1898       C  0.35227608  0.90147421  0.97662401     0.04600
C1899       C  0.36952340  0.88728817  0.87704151     0.27100
C1900       C  0.38427991  0.89864859  0.85645288    -0.13400
C1901       C  0.38480502  0.89778454  0.81653911     0.05100
C1902       C  0.37020054  0.88586753  0.79708878    -0.09400
C1903       C  0.35498173  0.87504114  0.81782237     0.06000
C1904       C  0.35491317  0.87546799  0.85767032    -0.13700
Br1905     Br  0.33490115  0.91633672  0.90630956    -0.05800
Br1906     Br  0.40335273  0.86521267  0.00996724    -0.00200
Br1907     Br  0.40629490  0.91210786  0.78890205     0.00300
Br1908     Br  0.33493765  0.85969230  0.88596953    -0.04100
Br1909     Br  0.32934946  0.91621750  0.99965369     0.00400
Br1910     Br  0.40222130  0.85944020  0.91643339    -0.03400
Br1911     Br  0.40381416  0.91529830  0.88318365    -0.04300
Br1912     Br  0.33356844  0.86022617  0.79166154    -0.00300
C1913       C  0.37617456  0.88396928  0.29699386     0.01100
C1914       C  0.39076556  0.87395594  0.32023819     0.03900
C1915       C  0.38861692  0.87465740  0.35997112    -0.12100
C1916       C  0.37277953  0.88634278  0.37696659     0.23200
C1917       C  0.35864009  0.89687663  0.35399155    -0.12700
C1918       C  0.35987585  0.89520680  0.31416036     0.04600
C1919       C  0.37132283  0.88776205  0.41903940     0.27100
C1920       C  0.35661859  0.87620543  0.43940714    -0.13400
C1921       C  0.35567996  0.87722204  0.47933675     0.05100
C1922       C  0.36912010  0.89015622  0.49900838    -0.09400
C1923       C  0.38378484  0.90175113  0.47854506     0.06000
C1924       C  0.38505268  0.90036846  0.43875006    -0.13700
Br1925     Br  0.33763446  0.91367560  0.37730588    -0.05800
Br1926     Br  0.41451008  0.85998328  0.29817568    -0.00200
Br1927     Br  0.33538782  0.86148570  0.50695434     0.00300
Br1928     Br  0.40570082  0.91567478  0.41103344    -0.04100
Br1929     Br  0.33822518  0.90715439  0.28364056     0.00400
Br1930     Br  0.40729257  0.85944162  0.39142427    -0.03400
Br1931     Br  0.33767608  0.85910239  0.41240382    -0.04300
Br1932     Br  0.40259316  0.91923030  0.50508359    -0.00300
C1933       C  0.37711599  0.05997249  0.26032357     0.01100
C1934       C  0.37970607  0.04318227  0.28355202     0.03900
C1935       C  0.37945810  0.02414846  0.26758359    -0.12100
C1936       C  0.37625482  0.02158975  0.22842257     0.23200
C1937       C  0.37375728  0.03823748  0.20509622    -0.12700
C1938       C  0.37443601  0.05736414  0.22083357     0.04600
C1939       C  0.37445429  0.00128882  0.21248295     0.27100
C1940       C  0.39246157  0.99122431  0.19885530    -0.13400
C1941       C  0.39090266  0.97147715  0.18660767     0.05100
C1942       C  0.37127054  0.96156733  0.18810408    -0.09400
C1943       C  0.35319760  0.97188798  0.20116047     0.06000
C1944       C  0.35478231  0.99166424  0.21294341    -0.13700
Br1945     Br  0.36849786  0.03466704  0.15175215    -0.05800
Br1946     Br  0.38403900  0.04604494  0.33742845    -0.00200
Br1947     Br  0.41555735  0.95846720  0.16589489     0.00300
Br1948     Br  0.32994673  0.00577434  0.22985346    -0.04100
Br1949     Br  0.37026161  0.07978801  0.18830324     0.00400
Br1950     Br  0.38310695  0.00133089  0.29942651    -0.03400
Br1951     Br  0.41920658  0.00472262  0.19664487    -0.04300
Br1952     Br  0.32629425  0.95882473  0.20504202    -0.00300
C1953       C  0.12859807  0.80204706  0.56061092     0.01100
C1954       C  0.13858640  0.79080763  0.53186438     0.03900
C1955       C  0.13935336  0.77008877  0.53439858    -0.12100
C1956       C  0.13020148  0.76035702  0.56581838     0.23200
C1957       C  0.12124310  0.77168137  0.59557415    -0.12700
C1958       C  0.12033923  0.79244118  0.59287563     0.04600
C1959       C  0.12866535  0.73830185  0.56622008     0.27100
C1960       C  0.11163011  0.72888733  0.54838196    -0.13400
C1961       C  0.10984821  0.70815373  0.54873895     0.05100
C1962       C  0.12471906  0.69638168  0.56833448    -0.09400
C1963       C  0.14241024  0.70594564  0.58462847     0.06000
C1964       C  0.14426699  0.72673100  0.58359856    -0.13700
Br1965     Br  0.10938628  0.75860668  0.63927401    -0.05800
Br1966     Br  0.15077879  0.80393894  0.48834950    -0.00200
Br1967     Br  0.08765896  0.69608737  0.51957094     0.00300
Br1968     Br  0.16807735  0.73965490  0.60652466    -0.04100
Br1969     Br  0.10652146  0.80770309  0.63201734     0.00400
Br1970     Br  0.15216271  0.75490124  0.49403042    -0.03400
Br1971     Br  0.09048187  0.74465408  0.52365580    -0.04300
Br1972     Br  0.16420735  0.69111833  0.60922890    -0.00300
C1973       C  0.11871807  0.95214183  0.50343429     0.01100
C1974       C  0.10728340  0.96575102  0.52583237     0.03900
C1975       C  0.10806976  0.98602378  0.51740667    -0.12100
C1976       C  0.11969174  0.99276727  0.48565973     0.23200
C1977       C  0.13060569  0.97903048  0.46257089    -0.12700
C1978       C  0.13033280  0.95882003  0.47172933     0.04600
C1979       C  0.12053909  0.01425018  0.47657700     0.27100
C1980       C  0.10406098  0.02319963  0.45624495    -0.13400
C1981       C  0.10547284  0.04319307  0.44564781     0.05100
C1982       C  0.12342498  0.05438664  0.45512957    -0.09400
C1983       C  0.13928236  0.04574178  0.47742308     0.06000
C1984       C  0.13788829  0.02574789  0.48801457    -0.13700
Br1985     Br  0.14634333  0.98800581  0.41885062    -0.05800
Br1986     Br  0.09056262  0.95648508  0.56819936    -0.00200
Br1987     Br  0.08297357  0.05517640  0.41740060     0.00300
Br1988     Br  0.15965391  0.01403218  0.51845795    -0.04100
Br1989     Br  0.14659202  0.94028908  0.44194440     0.00400
Br1990     Br  0.09396456  0.00469991  0.55020736    -0.03400
Br1991     Br  0.07965921  0.00789228  0.44259773    -0.04300
Br1992     Br  0.16240357  0.06159157  0.49493121    -0.00300
C1993       C  0.18936739  0.88397880  0.58302702     0.01100
C1994       C  0.20258942  0.87431873  0.55628768     0.03900
C1995       C  0.22481899  0.87483809  0.56025837    -0.12100
C1996       C  0.23405654  0.88472775  0.59122347     0.23200
C1997       C  0.22086318  0.89376881  0.61853750    -0.12700
C1998       C  0.19873093  0.89324875  0.61475747     0.04600
C1999       C  0.25758551  0.88645152  0.59462401     0.27100
C2000       C  0.26881602  0.87434719  0.61989240    -0.13400
C2001       C  0.29065528  0.87732143  0.62579978     0.05100
C2002       C  0.30182269  0.89190547  0.60509411    -0.09400
C2003       C  0.29049413  0.90365600  0.57891804     0.06000
C2004       C  0.26851126  0.90123084  0.57453001    -0.13700
Br2005     Br  0.23330397  0.90749783  0.66077671    -0.05800
Br2006     Br  0.19048914  0.86106257  0.51327731    -0.00200
Br2007     Br  0.30462136  0.86233826  0.66459378     0.00300
Br2008     Br  0.25304364  0.91857243  0.54151909    -0.04100
Br2009     Br  0.18133741  0.90464055  0.65451031     0.00400
Br2010     Br  0.24278739  0.86255293  0.52261948    -0.03400
Br2011     Br  0.25399733  0.85382901  0.64690057    -0.04300
Br2012     Br  0.30488098  0.92265268  0.54715021    -0.00300
C2013       C  0.13015627  0.80135519  0.06600137     0.01100
C2014       C  0.12484858  0.79173028  0.10019674     0.03900
C2015       C  0.12449956  0.77087938  0.10190188    -0.12100
C2016       C  0.13012082  0.75945637  0.06973475     0.23200
C2017       C  0.13721359  0.76917278  0.03663015    -0.12700
C2018       C  0.13688556  0.78993505  0.03458205     0.04600
C2019       C  0.12747791  0.73741449  0.06978393     0.27100
C2020       C  0.14255173  0.72506349  0.08681964    -0.13400
C2021       C  0.13987852  0.70434282  0.08691914     0.05100
C2022       C  0.12168051  0.69563386  0.07056223    -0.09400
C2023       C  0.10750666  0.70806752  0.05096296     0.06000
C2024       C  0.11015113  0.72873135  0.05130269    -0.13700
Br2025     Br  0.14684415  0.75391675  0.99359320    -0.05800
Br2026     Br  0.11712493  0.80716688  0.14405862    -0.00200
Br2027     Br  0.16174396  0.68838401  0.10903884     0.00300
Br2028     Br  0.08975681  0.74531818  0.02654269    -0.04100
Br2029     Br  0.14527641  0.80288037  0.98814370     0.00400
Br2030     Br  0.11523474  0.75791483  0.14769577    -0.03400
Br2031     Br  0.16699523  0.73673640  0.11006917    -0.04300
Br2032     Br  0.08552018  0.69687696  0.02005911    -0.00300
C2033       C  0.11994969  0.87696171  0.68515679     0.01100
C2034       C  0.10652029  0.88959559  0.70644879     0.03900
C2035       C  0.10598047  0.88848850  0.74626577    -0.12100
C2036       C  0.11818976  0.87431755  0.76506873     0.23200
C2037       C  0.13085174  0.86112275  0.74396105    -0.12700
C2038       C  0.13206198  0.86264336  0.70415117     0.04600
C2039       C  0.11776475  0.87339273  0.80713774     0.27100
C2040       C  0.13309500  0.88347768  0.82828629    -0.13400
C2041       C  0.13294034  0.88233255  0.86817609     0.05100
C2042       C  0.11701778  0.87152031  0.88722475    -0.09400
C2043       C  0.10141348  0.86169181  0.86577633     0.06000
C2044       C  0.10193128  0.86254319  0.82590368    -0.13700
Br2045     Br  0.14680091  0.84117506  0.76994310    -0.05800
Br2046     Br  0.08827940  0.90820757  0.68138979    -0.00200
Br2047     Br  0.15554334  0.89439787  0.89615776     0.00300
Br2048     Br  0.08093205  0.84886259  0.79659203    -0.04100
Br2049     Br  0.15164729  0.84612590  0.67635456     0.00400
Br2050     Br  0.08882728  0.90664920  0.77541787    -0.03400
Br2051     Br  0.15434305  0.89883928  0.80227520    -0.04300
Br2052     Br  0.07874870  0.84744802  0.89051379    -0.00300
C2053       C  0.12853803  0.88082397  0.18474132     0.01100
C2054       C  0.14462716  0.88971600  0.20635992     0.03900
C2055       C  0.14350850  0.88943551  0.24618931    -0.12100
C2056       C  0.12618854  0.88058778  0.26467044     0.23200
C2057       C  0.11022754  0.87152882  0.24326254    -0.12700
C2058       C  0.11147061  0.87148676  0.20334726     0.04600
C2059       C  0.12518508  0.88019719  0.30671644     0.27100
C2060       C  0.13501962  0.86480287  0.32634590    -0.13400
C2061       C  0.13381629  0.86403335  0.36611486     0.05100
C2062       C  0.12210240  0.87836994  0.38666322    -0.09400
C2063       C  0.11338159  0.89452377  0.36691996     0.06000
C2064       C  0.11493682  0.89537058  0.32701226    -0.13700
Br2065     Br  0.08654867  0.85941609  0.26886999    -0.05800
Br2066     Br  0.16859432  0.90197277  0.18167783    -0.00200
Br2067     Br  0.14963722  0.84391277  0.39221530     0.00300
Br2068     Br  0.10304430  0.91726980  0.29973359    -0.04100
Br2069     Br  0.08923243  0.85951328  0.17431803     0.00400
Br2070     Br  0.16575079  0.90107034  0.27575896    -0.03400
Br2071     Br  0.15026647  0.84477126  0.29839431    -0.04300
Br2072     Br  0.09904186  0.91545559  0.39358448    -0.00300
C2073       C  0.12172528  0.95025292  0.99515178     0.01100
C2074       C  0.13817797  0.95913295  0.97401758     0.03900
C2075       C  0.13762588  0.97947505  0.96559087    -0.12100
C2076       C  0.12075118  0.99136133  0.97871040     0.23200
C2077       C  0.10392850  0.98235781  0.99883311    -0.12700
C2078       C  0.10427582  0.96189039  0.00650340     0.04600
C2079       C  0.12058725  0.01314929  0.97062083     0.27100
C2080       C  0.13328779  0.02625800  0.99169334    -0.13400
C2081       C  0.13401994  0.04654576  0.98250103     0.05100
C2082       C  0.12173830  0.05407022  0.95271160    -0.09400
C2083       C  0.10861508  0.04109498  0.93237649     0.06000
C2084       C  0.10827759  0.02075371  0.94085752    -0.13700
Br2085     Br  0.08069789  0.99825401  0.01698278    -0.05800
Br2086     Br  0.16125864  0.94319673  0.95558713    -0.00200
Br2087     Br  0.15245930  0.06402704  0.00965376     0.00300
Br2088     Br  0.09174714  0.00305596  0.91036669    -0.04100
Br2089     Br  0.08108690  0.94983219  0.03360497     0.00400
Br2090     Br  0.16006247  0.99114300  0.93590377    -0.03400
Br2091     Br  0.15012645  0.01628831  0.03262840    -0.04300
Br2092     Br  0.09121619  0.05127836  0.89236957    -0.00300
C2093       C  0.19275832  0.88253278  0.07678890     0.01100
C2094       C  0.20106267  0.86983422  0.10468661     0.03900
C2095       C  0.22289931  0.86971037  0.11194545    -0.12100
C2096       C  0.23656671  0.88209789  0.09122340     0.23200
C2097       C  0.22842194  0.89422898  0.06248474    -0.12700
C2098       C  0.20659025  0.89459436  0.05552438     0.04600
C2099       C  0.25945504  0.88294282  0.10007478     0.27100
C2100       C  0.26674397  0.89578952  0.12848335    -0.13400
C2101       C  0.28857813  0.89834091  0.13388957     0.05100
C2102       C  0.30325975  0.88845073  0.11027423    -0.09400
C2103       C  0.29587142  0.87499409  0.08277597     0.06000
C2104       C  0.27404643  0.87198591  0.07829542    -0.13700
Br2105     Br  0.24728743  0.91063807  0.03308679    -0.05800
Br2106     Br  0.18251361  0.85356220  0.13506999    -0.00200
Br2107     Br  0.29832787  0.91488063  0.17446041     0.00300
Br2108     Br  0.26393682  0.85312665  0.04179142    -0.04100
Br2109     Br  0.19571460  0.91158301  0.01657216     0.00400
Br2110     Br  0.23416527  0.85300332  0.15100500    -0.03400
Br2111     Br  0.24668839  0.91013406  0.15948409    -0.04300
Br2112     Br  0.31540228  0.86178820  0.04886073    -0.00300
C2113       C  0.55348573  0.13122844  0.78124555     0.01100
C2114       C  0.54155882  0.14393556  0.80501882     0.03900
C2115       C  0.51932457  0.14424411  0.80309677    -0.12100
C2116       C  0.50866324  0.13170164  0.77780356     0.23200
C2117       C  0.52041632  0.11831416  0.75540438    -0.12700
C2118       C  0.54269592  0.11795341  0.75722328     0.04600
C2119       C  0.48510692  0.13266872  0.77502328     0.27100
C2120       C  0.47226012  0.12344452  0.80257615    -0.13400
C2121       C  0.45011898  0.12587123  0.80212274     0.05100
C2122       C  0.44044003  0.13696809  0.77312754    -0.09400
C2123       C  0.45334536  0.14529315  0.74432822     0.06000
C2124       C  0.47553915  0.14345410  0.74569701    -0.13700
Br2125     Br  0.50583859  0.10063685  0.72176894    -0.05800
Br2126     Br  0.55554181  0.16027263  0.84193583    -0.00200
Br2127     Br  0.43351412  0.11491737  0.84292924     0.00300
Br2128     Br  0.49299284  0.15593492  0.70757670    -0.04100
Br2129     Br  0.55817371  0.09958212  0.72562171     0.00400
Br2130     Br  0.50333227  0.16211552  0.83487494    -0.03400
Br2131     Br  0.48521628  0.10750086  0.84115998    -0.04300
Br2132     Br  0.44068315  0.15846959  0.70173450    -0.00300
C2133       C  0.63093192  0.19735725  0.84930743     0.01100
C2134       C  0.62873918  0.20434430  0.88688640     0.03900
C2135       C  0.63025999  0.22474711  0.89454192    -0.12100
C2136       C  0.63378230  0.23821581  0.86468628     0.23200
C2137       C  0.63771469  0.23100526  0.82776442    -0.12700
C2138       C  0.63661634  0.21067828  0.82025753     0.04600
C2139       C  0.63108875  0.25988983  0.87061056     0.27100
C2140       C  0.61076863  0.26819377  0.86814113    -0.13400
C2141       C  0.60820220  0.28877293  0.86634158     0.05100
C2142       C  0.62598783  0.30137042  0.86624062    -0.09400
C2143       C  0.64620804  0.29308683  0.87200190     0.06000
C2144       C  0.64871156  0.27241056  0.87413231    -0.13700
Br2145     Br  0.64347634  0.24915171  0.78689015    -0.05800
Br2146     Br  0.62236522  0.18621868  0.92740886    -0.00200
Br2147     Br  0.58010091  0.29966812  0.86311033     0.00300
Br2148     Br  0.67641549  0.26100786  0.87914894    -0.04100
Br2149     Br  0.64326645  0.20098203  0.76999264     0.00400
Br2150     Br  0.62669034  0.23446778  0.94555375    -0.03400
Br2151     Br  0.58648043  0.25118789  0.86424435    -0.04300
Br2152     Br  0.67079587  0.30971331  0.87346709    -0.00300
C2153       C  0.44661600  0.13648481  0.27347192     0.01100
C2154       C  0.45548540  0.12011964  0.29260153     0.03900
C2155       C  0.47751940  0.11722910  0.29250942    -0.12100
C2156       C  0.49098298  0.13126110  0.27585620     0.23200
C2157       C  0.48237873  0.14755911  0.25693315    -0.12700
C2158       C  0.46034600  0.14976048  0.25434329     0.04600
C2159       C  0.51425693  0.12914557  0.27873876     0.27100
C2160       C  0.52465134  0.13555666  0.31167041    -0.13400
C2161       C  0.54683532  0.13510095  0.31324341     0.05100
C2162       C  0.55874631  0.12870117  0.28153271    -0.09400
C2163       C  0.54827360  0.12149951  0.24918612     0.06000
C2164       C  0.52607253  0.12153416  0.24799498    -0.13700
Br2165     Br  0.50098225  0.16705058  0.23491223    -0.05800
Br2166     Br  0.43813910  0.10201404  0.32120880    -0.00200
Br2167     Br  0.56097125  0.14300129  0.35904009     0.00300
Br2168     Br  0.51171763  0.11179799  0.20375070    -0.04100
Br2169     Br  0.44947563  0.17028735  0.22198834     0.00400
Br2170     Br  0.48953943  0.09396783  0.31509722    -0.03400
Br2171     Br  0.50843921  0.14568958  0.35401827    -0.04300
Br2172     Br  0.56414495  0.11306521  0.20514688    -0.00300
C2173       C  0.62203807  0.20090479  0.35199144     0.01100
C2174       C  0.64034811  0.20937528  0.36774061     0.03900
C2175       C  0.64078877  0.22966429  0.37677889    -0.12100
C2176       C  0.62326672  0.24176504  0.36888855     0.23200
C2177       C  0.60464282  0.23313431  0.35506578    -0.12700
C2178       C  0.60388898  0.21279963  0.34735412     0.04600
C2179       C  0.62512363  0.26370736  0.36995396     0.27100
C2180       C  0.61560579  0.27486663  0.39935394    -0.13400
C2181       C  0.61428322  0.29559168  0.39640887     0.05100
C2182       C  0.62308909  0.30529741  0.36467650    -0.09400
C2183       C  0.63350542  0.29417835  0.33628433     0.06000
C2184       C  0.63444616  0.27352071  0.33880556    -0.13700
Br2185     Br  0.58052229  0.24949222  0.34411843    -0.05800
Br2186     Br  0.66559627  0.19386968  0.37320391    -0.00200
Br2187     Br  0.59862495  0.31046924  0.43376327     0.00300
Br2188     Br  0.64727632  0.25850932  0.29809932    -0.04100
Br2189     Br  0.57779478  0.20134291  0.32993597     0.00400
Br2190     Br  0.66577329  0.24127708  0.39804823    -0.03400
Br2191     Br  0.60348014  0.26159161  0.44262125    -0.04300
Br2192     Br  0.64545857  0.30728810  0.29249907    -0.00300
C2193       C  0.61630912  0.12642588  0.66460143     0.01100
C2194       C  0.63375307  0.11845440  0.64462488     0.03900
C2195       C  0.63349343  0.11731503  0.60468439    -0.12100
C2196       C  0.61570522  0.12385959  0.58455806     0.23200
C2197       C  0.59797553  0.13110327  0.60452712    -0.12700
C2198       C  0.59836646  0.13266862  0.64433278     0.04600
C2199       C  0.61586476  0.12364486  0.54233525     0.27100
C2200       C  0.62134542  0.14075056  0.52200677    -0.13400
C2201       C  0.62216132  0.14049596  0.48200586     0.05100
C2202       C  0.61827932  0.12276136  0.46202417    -0.09400
C2203       C  0.61132806  0.10601145  0.48267202     0.06000
C2204       C  0.61025463  0.10647921  0.52258262    -0.13700
Br2205     Br  0.57313107  0.13883865  0.57704718    -0.05800
Br2206     Br  0.65853726  0.11021086  0.67167822    -0.00200
Br2207     Br  0.62862637  0.16466423  0.45565212     0.00300
Br2208     Br  0.60109552  0.08358129  0.55059267    -0.04100
Br2209     Br  0.57408066  0.14325289  0.67090291     0.00400
Br2210     Br  0.65765751  0.10717071  0.57722214    -0.03400
Br2211     Br  0.62821733  0.16447316  0.54942870    -0.04300
Br2212     Br  0.60174378  0.08262840  0.45668185    -0.00300
C2213       C  0.62528672  0.11940091  0.96245230     0.01100
C2214       C  0.60636663  0.12472711  0.98124903     0.03900
C2215       C  0.60539963  0.12491189  0.02120759    -0.12100
C2216       C  0.62324803  0.11957936  0.04243149     0.23200
C2217       C  0.64212683  0.11431366  0.02366823    -0.12700
C2218       C  0.64326351  0.11463667  0.98386184     0.04600
C2219       C  0.62285846  0.12128710  0.08440429     0.27100
C2220       C  0.62812491  0.13935718  0.10128107    -0.13400
C2221       C  0.62785705  0.14133178  0.14095787     0.05100
C2222       C  0.62260174  0.12507717  0.16426540    -0.09400
C2223       C  0.61796141  0.10672467  0.14719651     0.06000
C2224       C  0.61789696  0.10494166  0.10731786    -0.13700
Br2225     Br  0.66650547  0.10685569  0.05273648    -0.05800
Br2226     Br  0.58168312  0.13136876  0.95236421    -0.00200
Br2227     Br  0.63579056  0.16628690  0.16297358     0.00300
Br2228     Br  0.61095284  0.08017100  0.08372951    -0.04100
Br2229     Br  0.66997060  0.11006970  0.95888114     0.00400
Br2230     Br  0.57969889  0.13247148  0.04714821    -0.03400
Br2231     Br  0.63607439  0.16137231  0.06961361    -0.04300
Br2232     Br  0.61100051  0.08406756  0.17779791    -0.00300
C2233       C  0.94031320  0.12885262  0.95534612     0.01100
C2234       C  0.95021367  0.11566121  0.92945757     0.03900
C2235       C  0.97245356  0.11432481  0.92750227    -0.12100
C2236       C  0.98499199  0.12624256  0.95091529     0.23200
C2237       C  0.97527251  0.13910603  0.97708179    -0.12700
C2238       C  0.95312069  0.14020530  0.97979666     0.04600
C2239       C  0.00844272  0.12604090  0.94734231     0.27100
C2240       C  0.02058897  0.11312415  0.96942281    -0.13400
C2241       C  0.04277925  0.11499116  0.97017693     0.05100
C2242       C  0.05299688  0.12981639  0.94862495    -0.09400
C2243       C  0.04077302  0.14145463  0.92389560     0.06000
C2244       C  0.01862532  0.13981110  0.92374018    -0.13700
Br2245     Br  0.99255886  0.15567499  0.00867084    -0.05800
Br2246     Br  0.93383886  0.10017359  0.89468070    -0.00200
Br2247     Br  0.05871015  0.09758285  0.00197380     0.00300
Br2248     Br  0.00200967  0.15669644  0.89169938    -0.04100
Br2249     Br  0.94065354  0.15686213  0.01850088     0.00400
Br2250     Br  0.98599118  0.09662662  0.89191891    -0.03400
Br2251     Br  0.00657768  0.09320356  0.99933745    -0.04300
Br2252     Br  0.05430954  0.15868839  0.88797804    -0.00300
C2253       C  0.86664895  0.19779168  0.88529519     0.01100
C2254       C  0.86752788  0.20466475  0.84753167     0.03900
C2255       C  0.86613152  0.22505916  0.84002366    -0.12100
C2256       C  0.86417506  0.23861036  0.87023141     0.23200
C2257       C  0.86238191  0.23162342  0.90773266    -0.12700
C2258       C  0.86336702  0.21133695  0.91518000     0.04600
C2259       C  0.86561376  0.26025628  0.86380283     0.27100
C2260       C  0.88553890  0.26939876  0.86359156    -0.13400
C2261       C  0.88709795  0.29001265  0.86646333     0.05100
C2262       C  0.86878334  0.30163770  0.87206339    -0.09400
C2263       C  0.84874583  0.29253413  0.86949408     0.06000
C2264       C  0.84725183  0.27196130  0.86424117    -0.13700
Br2265     Br  0.85946898  0.25001985  0.94929454    -0.05800
Br2266     Br  0.87216060  0.18639865  0.80640897    -0.00200
Br2267     Br  0.91454300  0.30220145  0.86321269     0.00300
Br2268     Br  0.82007475  0.25940842  0.86030258    -0.04100
Br2269     Br  0.85991213  0.20208208  0.96667758     0.00400
Br2270     Br  0.86750591  0.23460548  0.78863968    -0.03400
Br2271     Br  0.91078231  0.25347015  0.86270872    -0.04300
Br2272     Br  0.82326866  0.30748581  0.87793668    -0.00300
C2273       C  0.80245169  0.11774326  0.88147638     0.01100
C2274       C  0.79026190  0.12729719  0.90981442     0.03900
C2275       C  0.76809317  0.12838457  0.90649428    -0.12100
C2276       C  0.75805248  0.12003673  0.87479903     0.23200
C2277       C  0.77025427  0.11105353  0.84601352    -0.12700
C2278       C  0.79231049  0.10987111  0.84927964     0.04600
C2279       C  0.73461215  0.11952627  0.87211566     0.27100
C2280       C  0.72374461  0.10245965  0.88317660    -0.13400
C2281       C  0.70210408  0.10029319  0.87534941     0.05100
C2282       C  0.69062404  0.11585418  0.85764532    -0.09400
C2283       C  0.70173782  0.13339834  0.84796120     0.06000
C2284       C  0.72360303  0.13501522  0.85486424    -0.13700
Br2285     Br  0.75651843  0.10015176  0.80206541    -0.05800
Br2286     Br  0.80367360  0.13791530  0.95419667    -0.00200
Br2287     Br  0.68916404  0.07556333  0.89011507     0.00300
Br2288     Br  0.73895493  0.15833430  0.83993975    -0.04100
Br2289     Br  0.80853115  0.09786365  0.80866230     0.00400
Br2290     Br  0.75132321  0.14088680  0.94561197    -0.03400
Br2291     Br  0.73898371  0.08189072  0.90917672    -0.04300
Br2292     Br  0.68798699  0.15524206  0.82327313    -0.00300
C2293       C  0.94274622  0.13150433  0.45142130     0.01100
C2294       C  0.95481442  0.14597250  0.43211128     0.03900
C2295       C  0.97706357  0.14518053  0.43207064    -0.12100
C2296       C  0.98764033  0.12948667  0.44978266     0.23200
C2297       C  0.97568624  0.11454977  0.46763496    -0.12700
C2298       C  0.95337608  0.11563516  0.46886422     0.04600
C2299       C  0.01130683  0.12917312  0.45039196     0.27100
C2300       C  0.02303642  0.12312129  0.41811903    -0.13400
C2301       C  0.04532739  0.12445929  0.41765155     0.05100
C2302       C  0.05608004  0.13204804  0.44935306    -0.09400
C2303       C  0.04435774  0.13739200  0.48210012     0.06000
C2304       C  0.02212955  0.13602080  0.48258438    -0.13700
Br2305     Br  0.99004531  0.09282394  0.49124313    -0.05800
Br2306     Br  0.94102688  0.16662693  0.40403469    -0.00200
Br2307     Br  0.06100845  0.11662021  0.37302134     0.00300
Br2308     Br  0.00638584  0.14405850  0.52713317    -0.04100
Br2309     Br  0.93765191  0.09595624  0.49664478     0.00400
Br2310     Br  0.99322248  0.16606668  0.40874328    -0.03400
Br2311     Br  0.00837679  0.11346220  0.37419327    -0.04300
Br2312     Br  0.05885642  0.14622258  0.52689275    -0.00300
C2313       C  0.87830953  0.31161591  0.38622704     0.01100
C2314       C  0.89151652  0.29889252  0.36453233     0.03900
C2315       C  0.88910299  0.27820922  0.36654506    -0.12100
C2316       C  0.87293829  0.26975931  0.38896736     0.23200
C2317       C  0.85914220  0.28238202  0.40933491    -0.12700
C2318       C  0.86205409  0.30308726  0.40866301     0.04600
C2319       C  0.87179297  0.24769380  0.39386540     0.27100
C2320       C  0.86256077  0.23541930  0.36624251    -0.13400
C2321       C  0.86286241  0.21457850  0.37015557     0.05100
C2322       C  0.87204136  0.20559961  0.40246397    -0.09400
C2323       C  0.88009090  0.21828554  0.43121084     0.06000
C2324       C  0.88058330  0.23893708  0.42621078    -0.13700
Br2325     Br  0.83642520  0.27109768  0.43889597    -0.05800
Br2326     Br  0.91269910  0.30960905  0.33060821    -0.00200
Br2327     Br  0.85116091  0.19876379  0.33013269     0.00300
Br2328     Br  0.89402158  0.25550925  0.46348587    -0.04100
Br2329     Br  0.84483735  0.31939407  0.44129945     0.00400
Br2330     Br  0.90850582  0.26124787  0.33941946    -0.03400
Br2331     Br  0.84972683  0.24738872  0.32259987    -0.04300
Br2332     Br  0.88929257  0.20809921  0.47952540    -0.00300
C2333       C  0.86902932  0.11928646  0.77361366     0.01100
C2334       C  0.88393117  0.10804527  0.75281549     0.03900
C2335       C  0.88479557  0.10931548  0.71300318    -0.12100
C2336       C  0.87165895  0.12265488  0.69382119     0.23200
C2337       C  0.85711921  0.13426053  0.71456731    -0.12700
C2338       C  0.85542388  0.13223269  0.75424699     0.04600
C2339       C  0.87358104  0.12473104  0.65192767     0.27100
C2340       C  0.89042660  0.13558533  0.63613215    -0.13400
C2341       C  0.89287688  0.13693054  0.59650415     0.05100
C2342       C  0.87791027  0.12815741  0.57227259    -0.09400
C2343       C  0.86088718  0.11746009  0.58821839     0.06000
C2344       C  0.85893821  0.11551504  0.62789879    -0.13700
Br2345     Br  0.83962083  0.15302431  0.68850864    -0.05800
Br2346     Br  0.90411005  0.09174069  0.77882619    -0.00200
Br2347     Br  0.91736458  0.15014478  0.57565860     0.00300
Br2348     Br  0.83604961  0.10040258  0.64958410    -0.04100
Br2349     Br  0.83361310  0.14639691  0.78156065     0.00400
Br2350     Br  0.90385729  0.09261922  0.68446084    -0.03400
Br2351     Br  0.90992261  0.14896799  0.66905968    -0.04300
Br2352     Br  0.83935826  0.10652877  0.55615415    -0.00300
C2353       C  0.86294402  0.13008205  0.27374488     0.01100
C2354       C  0.85110086  0.11688390  0.25089267     0.03900
C2355       C  0.85309849  0.11723883  0.21104946    -0.12100
C2356       C  0.86509143  0.13198189  0.19307369     0.23200
C2357       C  0.87481793  0.14658606  0.21527461    -0.12700
C2358       C  0.87447330  0.14531161  0.25533697     0.04600
C2359       C  0.86768905  0.13188139  0.15086473     0.27100
C2360       C  0.88643380  0.12452278  0.13401470    -0.13400
C2361       C  0.88881324  0.12412929  0.09417049     0.05100
C2362       C  0.87236908  0.13082779  0.07091880    -0.09400
C2363       C  0.85350911  0.13784830  0.08767487     0.06000
C2364       C  0.85125408  0.13859438  0.12747445    -0.13700
Br2365     Br  0.88859831  0.16838698  0.19027703    -0.05800
Br2366     Br  0.83068600  0.09899712  0.27308773    -0.00200
Br2367     Br  0.91472620  0.11479629  0.07130383     0.00300
Br2368     Br  0.82578642  0.14914263  0.15005018    -0.04100
Br2369     Br  0.89094752  0.16400044  0.28373964     0.00400
Br2370     Br  0.83973901  0.09713562  0.18080397    -0.03400
Br2371     Br  0.90885487  0.11496173  0.16565238    -0.04300
Br2372     Br  0.83060110  0.14614872  0.05580853    -0.00300
C2373       C  0.80206922  0.12729837  0.38908143     0.01100
C2374       C  0.79335783  0.14026244  0.36209893     0.03900
C2375       C  0.77131757  0.14118810  0.35724413    -0.12100
C2376       C  0.75786191  0.12900598  0.37889064     0.23200
C2377       C  0.76646897  0.11646482  0.40650758    -0.12700
C2378       C  0.78845511  0.11576743  0.41180236     0.04600
C2379       C  0.73481123  0.12849590  0.37115427     0.27100
C2380       C  0.72050600  0.13897648  0.39441595    -0.13400
C2381       C  0.69858555  0.13697577  0.38907258     0.05100
C2382       C  0.69082020  0.12550506  0.35878721    -0.09400
C2383       C  0.70534022  0.11602675  0.33411887     0.06000
C2384       C  0.72715929  0.11694024  0.34109793    -0.13700
Br2385     Br  0.74812716  0.09953751  0.43584098    -0.05800
Br2386     Br  0.81154317  0.15557672  0.32936132    -0.00200
Br2387     Br  0.67948460  0.14829615  0.42582277     0.00300
Br2388     Br  0.74662449  0.10164742  0.31053394    -0.04100
Br2389     Br  0.79991481  0.09913086  0.45054919     0.00400
Br2390     Br  0.75944571  0.15848605  0.31971995    -0.03400
Br2391     Br  0.73107923  0.15562635  0.43430298    -0.04300
Br2392     Br  0.69548352  0.10221650  0.28993942    -0.00300
C2393       C  0.86848500  0.79989140  0.58248243     0.01100
C2394       C  0.86639539  0.78661405  0.55164244     0.03900
C2395       C  0.86480080  0.76612523  0.55783548    -0.12100
C2396       C  0.86472467  0.75840071  0.59495393     0.23200
C2397       C  0.86595673  0.77160655  0.62592610    -0.12700
C2398       C  0.86805310  0.79218999  0.61976717     0.04600
C2399       C  0.86406553  0.73637615  0.60047104     0.27100
C2400       C  0.84514545  0.72579556  0.59490769    -0.13400
C2401       C  0.84540761  0.70500456  0.59138361     0.05100
C2402       C  0.86454507  0.69442557  0.59441118    -0.09400
C2403       C  0.88302795  0.70491784  0.60411247     0.06000
C2404       C  0.88287284  0.72571483  0.60647925    -0.13700
Br2405     Br  0.86493337  0.76136039  0.67682590    -0.05800
Br2406     Br  0.86499785  0.79637796  0.50026134    -0.00200
Br2407     Br  0.81982054  0.69139870  0.57868396     0.00300
Br2408     Br  0.90884021  0.73970846  0.61527023    -0.04100
Br2409     Br  0.87175490  0.80959972  0.66239888     0.00400
Br2410     Br  0.86320647  0.74840301  0.51501357    -0.03400
Br2411     Br  0.81901590  0.74005980  0.58976035    -0.04300
Br2412     Br  0.90882004  0.69070924  0.61374785    -0.00300
C2413       C  0.05300279  0.87098870  0.50529449     0.01100
C2414       C  0.04203789  0.85763063  0.52921239     0.03900
C2415       C  0.01978023  0.85758894  0.53058937    -0.12100
C2416       C  0.00826129  0.87100092  0.50853072     0.23200
C2417       C  0.01905166  0.88464401  0.48548369    -0.12700
C2418       C  0.04129177  0.88473398  0.48397923     0.04600
C2419       C  0.98475986  0.87070497  0.50907852     0.27100
C2420       C  0.97381979  0.85928763  0.48240638    -0.13400
C2421       C  0.95161163  0.85966394  0.48164118     0.05100
C2422       C  0.94002651  0.87076929  0.50884762    -0.09400
C2423       C  0.95111965  0.88241202  0.53530735     0.06000
C2424       C  0.97339566  0.88241496  0.53521892    -0.13700
Br2425     Br  0.00309232  0.90288879  0.45513693    -0.05800
Br2426     Br  0.05735800  0.83985975  0.56164203    -0.00200
Br2427     Br  0.93725733  0.84575524  0.44156441     0.00300
Br2428     Br  0.98859036  0.89816078  0.57141432    -0.04100
Br2429     Br  0.05532354  0.90320735  0.45112484     0.00400
Br2430     Br  0.00488489  0.83897220  0.56227000    -0.03400
Br2431     Br  0.98942292  0.84285512  0.44725365    -0.04300
Br2432     Br  0.93621498  0.89781301  0.57288415    -0.00300
C2433       C  0.87057502  0.05362594  0.45929960     0.01100
C2434       C  0.85352531  0.04540533  0.48017798     0.03900
C2435       C  0.85374143  0.02535134  0.49146661    -0.12100
C2436       C  0.87106587  0.01305789  0.48228758     0.23200
C2437       C  0.88835759  0.02136018  0.46234737    -0.12700
C2438       C  0.88802788  0.04135632  0.45062854     0.04600
C2439       C  0.87107045  0.99147747  0.49330835     0.27100
C2440       C  0.87717523  0.98554924  0.52998444    -0.13400
C2441       C  0.87708818  0.96537712  0.54032892     0.05100
C2442       C  0.87108266  0.95062928  0.51410986    -0.09400
C2443       C  0.86514501  0.95653878  0.47729211     0.06000
C2444       C  0.86497810  0.97677771  0.46711917    -0.13700
Br2445     Br  0.91263903  0.00517797  0.45126751    -0.05800
Br2446     Br  0.82997621  0.06172512  0.49449051    -0.00200
Br2447     Br  0.88578963  0.95787421  0.59057455     0.00300
Br2448     Br  0.85567891  0.98456276  0.41749420    -0.04100
Br2449     Br  0.91108675  0.05167198  0.42068346     0.00400
Br2450     Br  0.83018625  0.01458481  0.51962397    -0.03400
Br2451     Br  0.88557439  0.00523324  0.56626653    -0.04300
Br2452     Br  0.85613184  0.93698084  0.44132469    -0.00300
C2453       C  0.86959186  0.80199202  0.07540575     0.01100
C2454       C  0.86613353  0.79324134  0.11119286     0.03900
C2455       C  0.86455453  0.77263108  0.11414640    -0.12100
C2456       C  0.86681659  0.76078215  0.08155558     0.23200
C2457       C  0.86991779  0.76948566  0.04577321    -0.12700
C2458       C  0.87103251  0.79002049  0.04258084     0.04600
C2459       C  0.86586850  0.73910210  0.08441388     0.27100
C2460       C  0.88402789  0.72834158  0.09417255    -0.13400
C2461       C  0.88365056  0.70768243  0.09297113     0.05100
C2462       C  0.86569493  0.69786219  0.07935030    -0.09400
C2463       C  0.84734086  0.70860343  0.07077131     0.06000
C2464       C  0.84726367  0.72918420  0.07427732    -0.13700
Br2465     Br  0.87284190  0.75314586  0.00104812    -0.05800
Br2466     Br  0.86483704  0.80920876  0.15643219    -0.00200
Br2467     Br  0.90745586  0.69277467  0.11075310     0.00300
Br2468     Br  0.82208830  0.74399119  0.06309824    -0.04100
Br2469     Br  0.87376227  0.80154970  0.99263415     0.00400
Br2470     Br  0.85943419  0.76044627  0.16271502    -0.03400
Br2471     Br  0.90978746  0.74191847  0.10654982    -0.04300
Br2472     Br  0.82291151  0.69539069  0.05103787    -0.00300
C2473       C  0.05486160  0.87116172  0.00830673     0.01100
C2474       C  0.04321021  0.86039986  0.03560634     0.03900
C2475       C  0.02108334  0.86213099  0.03740690    -0.12100
C2476       C  0.01053428  0.87480550  0.01232967     0.23200
C2477       C  0.02218302  0.88612402  0.98607832    -0.12700
C2478       C  0.04427861  0.88421905  0.98382744     0.04600
C2479       C  0.98711987  0.87504828  0.01155952     0.27100
C2480       C  0.97654458  0.86322144  0.98509746    -0.13400
C2481       C  0.95439012  0.86284113  0.98467047     0.05100
C2482       C  0.94256095  0.87345577  0.01225379    -0.09400
C2483       C  0.95323289  0.88596329  0.03780307     0.06000
C2484       C  0.97547321  0.88687644  0.03708971    -0.13700
Br2485     Br  0.00763079  0.90381626  0.95249673    -0.05800
Br2486     Br  0.05753188  0.84367958  0.07134644    -0.00200
Br2487     Br  0.94049729  0.84864364  0.94438238     0.00300
Br2488     Br  0.99019946  0.90413670  0.07127918    -0.04100
Br2489     Br  0.05975675  0.89855024  0.94535183     0.00400
Br2490     Br  0.00505169  0.84679347  0.07359227    -0.03400
Br2491     Br  0.99257499  0.84723087  0.94971817    -0.04300
Br2492     Br  0.93782523  0.90130870  0.07490936    -0.00300
C2493       C  0.87985827  0.87395693  0.90192054     0.01100
C2494       C  0.86757568  0.86125995  0.87931113     0.03900
C2495       C  0.86897001  0.86221721  0.83954952    -0.12100
C2496       C  0.88191885  0.87639871  0.82190410     0.23200
C2497       C  0.89419801  0.88914139  0.84427076    -0.12700
C2498       C  0.89350985  0.88766065  0.88419843     0.04600
C2499       C  0.88087047  0.87875562  0.78002658     0.27100
C2500       C  0.89554157  0.86928781  0.75576312    -0.13400
C2501       C  0.89274256  0.86970559  0.71607183     0.05100
C2502       C  0.87495998  0.87922297  0.70063246    -0.09400
C2503       C  0.86035595  0.88870096  0.72517027     0.06000
C2504       C  0.86359595  0.88884435  0.76451716    -0.13700
Br2505     Br  0.91178106  0.90867061  0.82009445    -0.05800
Br2506     Br  0.84796375  0.84304752  0.90253410    -0.00200
Br2507     Br  0.91372108  0.85799193  0.68301136     0.00300
Br2508     Br  0.84418065  0.90274274  0.79761741    -0.04100
Br2509     Br  0.91223105  0.90355773  0.91434006     0.00400
Br2510     Br  0.85296050  0.84413505  0.80882485    -0.03400
Br2511     Br  0.91935859  0.85573305  0.77713372    -0.04300
Br2512     Br  0.83505596  0.90061970  0.70533009    -0.00300
C2513       C  0.87112280  0.87197281  0.40234579     0.01100
C2514       C  0.85789871  0.85873960  0.38270555     0.03900
C2515       C  0.85687714  0.85932472  0.34288347    -0.12100
C2516       C  0.86904702  0.87308062  0.32243827     0.23200
C2517       C  0.88189109  0.88656495  0.34193341    -0.12700
C2518       C  0.88295575  0.88603880  0.38179298     0.04600
C2519       C  0.86795794  0.87373116  0.28041892     0.27100
C2520       C  0.88303472  0.86366299  0.25798975    -0.13400
C2521       C  0.88263668  0.86524732  0.21813344     0.05100
C2522       C  0.86685561  0.87664330  0.20057956    -0.09400
C2523       C  0.85124816  0.88602291  0.22323081     0.06000
C2524       C  0.85204300  0.88482782  0.26297769    -0.13700
Br2525     Br  0.89820640  0.90561273  0.31368032    -0.05800
Br2526     Br  0.84060693  0.84008488  0.41024628    -0.00200
Br2527     Br  0.90459068  0.85291741  0.18807859     0.00300
Br2528     Br  0.83166789  0.89886929  0.29387138    -0.04100
Br2529     Br  0.90165667  0.90383593  0.40775461     0.00400
Br2530     Br  0.83880527  0.84129592  0.31607551    -0.03400
Br2531     Br  0.90455307  0.84817229  0.28222465    -0.04300
Br2532     Br  0.82822934  0.90012073  0.20008605    -0.00300
C2533       C  0.87383292  0.95013299  0.01683582     0.01100
C2534       C  0.88793955  0.96279448  0.03553223     0.03900
C2535       C  0.88815629  0.98302391  0.02699023    -0.12100
C2536       C  0.87478482  0.99049996  0.99876463     0.23200
C2537       C  0.86129709  0.97764788  0.97899926    -0.12700
C2538       C  0.86060859  0.95754141  0.98842382     0.04600
C2539       C  0.87495821  0.01181182  0.98942734     0.27100
C2540       C  0.86026899  0.02467659  0.00678415    -0.13400
C2541       C  0.85907616  0.04446416  0.99510042     0.05100
C2542       C  0.87281393  0.05148150  0.96653992    -0.09400
C2543       C  0.88820335  0.03887869  0.95063059     0.06000
C2544       C  0.88921656  0.01905444  0.96190988    -0.13700
Br2545     Br  0.84372279  0.98767940  0.93911105    -0.05800
Br2546     Br  0.90684486  0.95235735  0.07301076    -0.00200
Br2547     Br  0.83850751  0.06194911  0.01769504     0.00300
Br2548     Br  0.90976140  0.00160904  0.93906760    -0.04100
Br2549     Br  0.84146329  0.94007378  0.96279485     0.00400
Br2550     Br  0.90633525  0.00063382  0.05445347    -0.03400
Br2551     Br  0.84171200  0.01503292  0.04624626    -0.04300
Br2552     Br  0.90749639  0.04871514  0.91250714    -0.00300
C2553       C  0.62102200  0.80178127  0.62596756     0.01100
C2554       C  0.60337802  0.78888454  0.63034773     0.03900
C2555       C  0.60581752  0.76835023  0.62613855    -0.12100
C2556       C  0.62543524  0.76028341  0.61542369     0.23200
C2557       C  0.64237732  0.77296281  0.60703919    -0.12700
C2558       C  0.64053153  0.79345029  0.61353316     0.04600
C2559       C  0.62882247  0.73855111  0.61843641     0.27100
C2560       C  0.63840382  0.73093331  0.65119091    -0.13400
C2561       C  0.63868024  0.71052736  0.65774642     0.05100
C2562       C  0.62848090  0.69748293  0.63257677    -0.09400
C2563       C  0.61984947  0.70498505  0.59875996     0.06000
C2564       C  0.62056262  0.72542791  0.59126777    -0.13700
Br2565     Br  0.66847657  0.76181233  0.58811475    -0.05800
Br2566     Br  0.57533768  0.79846996  0.64225093    -0.00200
Br2567     Br  0.65265004  0.70049250  0.70224018     0.00300
Br2568     Br  0.60935784  0.73570534  0.54470801    -0.04100
Br2569     Br  0.66579556  0.80907534  0.60912113     0.00400
Br2570     Br  0.58239252  0.75092453  0.63715883    -0.03400
Br2571     Br  0.64988612  0.74859232  0.68869809    -0.04300
Br2572     Br  0.60491580  0.68779212  0.56486575    -0.00300
C2573       C  0.55189724  0.87430056  0.69646260     0.01100
C2574       C  0.53950761  0.86312204  0.67124100     0.03900
C2575       C  0.51729883  0.86450706  0.67226730    -0.12100
C2576       C  0.50717621  0.87797816  0.69686855     0.23200
C2577       C  0.51948672  0.88964330  0.72131358    -0.12700
C2578       C  0.54172474  0.88770769  0.72139751     0.04600
C2579       C  0.48361347  0.87982987  0.69668119     0.27100
C2580       C  0.47355234  0.89116363  0.66865988    -0.13400
C2581       C  0.45127241  0.89167067  0.66648965     0.05100
C2582       C  0.43875672  0.88100565  0.69284825    -0.09400
C2583       C  0.44900245  0.87064231  0.72238190     0.06000
C2584       C  0.47123452  0.86972985  0.72370556    -0.13700
Br2585     Br  0.50568987  0.90793782  0.75533541    -0.05800
Br2586     Br  0.55296686  0.84690452  0.63317314    -0.00200
Br2587     Br  0.43829915  0.90625137  0.62603800     0.00300
Br2588     Br  0.48488562  0.85415745  0.76209230    -0.04100
Br2589     Br  0.55804317  0.90288998  0.75688589     0.00400
Br2590     Br  0.50057437  0.84741861  0.64079844    -0.03400
Br2591     Br  0.49055400  0.90570285  0.63270389    -0.04300
Br2592     Br  0.43280651  0.85839294  0.76270741    -0.00300
C2593       C  0.62231559  0.95030448  0.70446942     0.01100
C2594       C  0.61524055  0.96496214  0.67926015     0.03900
C2595       C  0.61355865  0.98471231  0.69128561    -0.12100
C2596       C  0.61965845  0.99011261  0.72817807     0.23200
C2597       C  0.62692370  0.97551392  0.75331053    -0.12700
C2598       C  0.62801455  0.95564711  0.74164126     0.04600
C2599       C  0.61928708  0.01121809  0.74006390     0.27100
C2600       C  0.63752418  0.02288785  0.73554280    -0.13400
C2601       C  0.63775420  0.04243196  0.74900318     0.05100
C2602       C  0.61960924  0.05059685  0.76649892    -0.09400
C2603       C  0.60103488  0.03923901  0.76934478     0.06000
C2604       C  0.60093042  0.01955653  0.75643836    -0.13700
Br2605     Br  0.63583524  0.98292095  0.80348903    -0.05800
Br2606     Br  0.60782755  0.95795322  0.62804601    -0.00200
Br2607     Br  0.66293785  0.05814311  0.74315813     0.00300
Br2608     Br  0.57585597  0.00374595  0.76209101    -0.04100
Br2609     Br  0.63832284  0.93591985  0.77593440     0.00400
Br2610     Br  0.60300134  0.00450584  0.65723965    -0.03400
Br2611     Br  0.66228882  0.01190238  0.71122875    -0.04300
Br2612     Br  0.57609409  0.05029934  0.79290435    -0.00300
C2613       C  0.69209735  0.88012767  0.62679290     0.01100
C2614       C  0.70147563  0.86763642  0.59923956     0.03900
C2615       C  0.72366666  0.86664710  0.59518287    -0.12100
C2616       C  0.73676971  0.87834227  0.61809966     0.23200
C2617       C  0.72751311  0.89058827  0.64602319    -0.12700
C2618       C  0.70532224  0.89156291  0.65025655     0.04600
C2619       C  0.76013908  0.87873239  0.61111089     0.27100
C2620       C  0.77364091  0.86565212  0.63023292    -0.13400
C2621       C  0.79570432  0.86630771  0.62382801     0.05100
C2622       C  0.80451219  0.88036832  0.59866122    -0.09400
C2623       C  0.79085194  0.89298632  0.57859146     0.06000
C2624       C  0.76882659  0.89213336  0.58475688    -0.13700
Br2625     Br  0.74538344  0.90637867  0.67790297    -0.05800
Br2626     Br  0.68404193  0.85341438  0.56411280    -0.00200
Br2627     Br  0.81375663  0.84832312  0.65078242     0.00300
Br2628     Br  0.75036847  0.90932413  0.55691933    -0.04100
Br2629     Br  0.69307870  0.90880845  0.68812218     0.00400
Br2630     Br  0.73630840  0.84982291  0.55710453    -0.03400
Br2631     Br  0.76176512  0.84701906  0.66565514    -0.04300
Br2632     Br  0.80217797  0.91086844  0.54106059    -0.00300
C2633       C  0.62086901  0.80483601  0.13457915     0.01100
C2634       C  0.63025879  0.79253401  0.16176244     0.03900
C2635       C  0.63067668  0.77198997  0.15645432    -0.12100
C2636       C  0.62223404  0.76353647  0.12330779     0.23200
C2637       C  0.61324169  0.77590614  0.09562292    -0.12700
C2638       C  0.61234849  0.79648677  0.10147151     0.04600
C2639       C  0.62158230  0.74160894  0.11942503     0.27100
C2640       C  0.64008466  0.73081467  0.11057292    -0.13400
C2641       C  0.64040627  0.71008956  0.11461016     0.05100
C2642       C  0.62202777  0.70004756  0.12642859    -0.09400
C2643       C  0.60300414  0.71072037  0.13103825     0.06000
C2644       C  0.60288609  0.73138667  0.12863021    -0.13700
Br2645     Br  0.60151987  0.76453198  0.05037468    -0.05800
Br2646     Br  0.64231590  0.80395672  0.20679535    -0.00200
Br2647     Br  0.66628501  0.69573874  0.10681991     0.00300
Br2648     Br  0.57748446  0.74575268  0.14145817    -0.04100
Br2649     Br  0.59840912  0.81316431  0.06535392     0.00400
Br2650     Br  0.64177111  0.75529817  0.19576478    -0.03400
Br2651     Br  0.66527470  0.74468485  0.09524132    -0.04300
Br2652     Br  0.57704472  0.69689244  0.14229856    -0.00300
C2653       C  0.55383447  0.88259650  0.20424800     0.01100
C2654       C  0.54006168  0.87220905  0.22899123     0.03900
C2655       C  0.51802347  0.87453249  0.22624601    -0.12100
C2656       C  0.50949398  0.88765762  0.19962117     0.23200
C2657       C  0.52312028  0.89941244  0.17749862    -0.12700
C2658       C  0.54521433  0.89710954  0.18001916     0.04600
C2659       C  0.48629691  0.88788689  0.19289609     0.27100
C2660       C  0.47759806  0.87443941  0.16699023    -0.13400
C2661       C  0.45560845  0.87360490  0.16193034     0.05100
C2662       C  0.44197936  0.88569706  0.18372000    -0.09400
C2663       C  0.45080648  0.89993420  0.20822346     0.06000
C2664       C  0.47291626  0.90107104  0.21257966    -0.13700
Br2665     Br  0.51125600  0.91805025  0.14240495    -0.05800
Br2666     Br  0.55123830  0.85560069  0.26845087    -0.00200
Br2667     Br  0.44431025  0.85669090  0.12336314     0.00300
Br2668     Br  0.48498852  0.92033747  0.24615731    -0.04100
Br2669     Br  0.56313052  0.91365471  0.14913000     0.00400
Br2670     Br  0.49931044  0.85921528  0.25806302    -0.03400
Br2671     Br  0.49597010  0.85687840  0.13888982    -0.04300
Br2672     Br  0.43276847  0.91725614  0.23748398    -0.00300
C2673       C  0.61584100  0.87229750  0.81303914     0.01100
C2674       C  0.59868465  0.86565989  0.83553644     0.03900
C2675       C  0.59961160  0.86682529  0.87532302    -0.12100
C2676       C  0.61751994  0.87486005  0.89285843     0.23200
C2677       C  0.63473669  0.88132363  0.87050999    -0.12700
C2678       C  0.63401843  0.87981240  0.83071106     0.04600
C2679       C  0.61838032  0.87617027  0.93486955     0.27100
C2680       C  0.60815210  0.89170249  0.95406060    -0.13400
C2681       C  0.60950254  0.89330243  0.99377756     0.05100
C2682       C  0.62112526  0.87927303  0.01475960    -0.09400
C2683       C  0.63017524  0.86298820  0.99540903     0.06000
C2684       C  0.62909813  0.86167028  0.95560568    -0.13700
Br2685     Br  0.65948909  0.89186069  0.89463439    -0.05800
Br2686     Br  0.57368314  0.85514014  0.81208429    -0.00200
Br2687     Br  0.59422935  0.91424860  0.01919124     0.00300
Br2688     Br  0.64254183  0.84006798  0.92903192    -0.04100
Br2689     Br  0.65865396  0.88642195  0.80070763     0.00400
Br2690     Br  0.57650614  0.85710136  0.90609842    -0.03400
Br2691     Br  0.59225276  0.91080940  0.92561874    -0.04300
Br2692     Br  0.64436153  0.84236406  0.02234824    -0.00300
C2693       C  0.62761374  0.88066679  0.51517747     0.01100
C2694       C  0.64369612  0.88944602  0.49279693     0.03900
C2695       C  0.64247095  0.88915133  0.45298719    -0.12100
C2696       C  0.62514279  0.88024590  0.43517038     0.23200
C2697       C  0.60929193  0.87112813  0.45729446    -0.12700
C2698       C  0.61054214  0.87123829  0.49720278     0.04600
C2699       C  0.62401576  0.87988404  0.39307736     0.27100
C2700       C  0.61193650  0.89400061  0.37357207    -0.13400
C2701       C  0.61039702  0.89313646  0.33372626     0.05100
C2702       C  0.62150129  0.87851238  0.31322806    -0.09400
C2703       C  0.63432817  0.86497760  0.33273778     0.06000
C2704       C  0.63523566  0.86541690  0.37254208    -0.13700
Br2705     Br  0.58582926  0.85855460  0.43263460    -0.05800
Br2706     Br  0.66793179  0.90141904  0.51636518    -0.00200
Br2707     Br  0.59211824  0.91120705  0.30756756     0.00300
Br2708     Br  0.65161162  0.84598639  0.39918894    -0.04100
Br2709     Br  0.58828729  0.85926466  0.52697733     0.00400
Br2710     Br  0.66462852  0.90085713  0.42256089    -0.03400
Br2711     Br  0.59740576  0.91437782  0.40164992    -0.04300
Br2712     Br  0.65134906  0.84621040  0.30480827    -0.00300
C2713       C  0.62831643  0.05225086  0.27161756     0.01100
C2714       C  0.61014877  0.04058414  0.27704881     0.03900
C2715       C  0.60975425  0.02104478  0.26363220    -0.12100
C2716       C  0.62759761  0.01303325  0.24504850     0.23200
C2717       C  0.64566662  0.02476579  0.23921683    -0.12700
C2718       C  0.64595494  0.04437133  0.25220210     0.04600
C2719       C  0.62718768  0.99247859  0.23052607     0.27100
C2720       C  0.63362441  0.97674891  0.25373543    -0.13400
C2721       C  0.63397165  0.95738971  0.23932439     0.05100
C2722       C  0.62762886  0.95366026  0.20175188    -0.09400
C2723       C  0.62095173  0.96940882  0.17872674     0.06000
C2724       C  0.62074311  0.98874925  0.19309480    -0.13700
Br2725     Br  0.66998986  0.01387539  0.21331438    -0.05800
Br2726     Br  0.58601561  0.05124970  0.30383526    -0.00200
Br2727     Br  0.64426572  0.93617164  0.27037856     0.00300
Br2728     Br  0.61148330  0.01026961  0.16171675    -0.04100
Br2729     Br  0.67019055  0.06067167  0.24208248     0.00400
Br2730     Br  0.58481950  0.00515314  0.27057551    -0.03400
Br2731     Br  0.64201443  0.98183073  0.30524502    -0.04300
Br2732     Br  0.61136827  0.96444885  0.12781188    -0.00300
C2733       C  0.69133997  0.88162847  0.12455990     0.01100
C2734       C  0.70074926  0.86530606  0.10579161     0.03900
C2735       C  0.72277718  0.86469715  0.09930225    -0.12100
C2736       C  0.73588686  0.87949938  0.11407492     0.23200
C2737       C  0.72686832  0.89472677  0.13602315    -0.12700
C2738       C  0.70475060  0.89613294  0.14044556     0.04600
C2739       C  0.75910317  0.87938145  0.10599592     0.27100
C2740       C  0.77270725  0.86712425  0.12679125    -0.13400
C2741       C  0.79471741  0.86773466  0.12020637     0.05100
C2742       C  0.80336789  0.88095515  0.09328046    -0.09400
C2743       C  0.78968926  0.89313671  0.07237142     0.06000
C2744       C  0.76766216  0.89212415  0.07829652    -0.13700
Br2745     Br  0.74507556  0.91367943  0.16008972    -0.05800
Br2746     Br  0.68397143  0.84363558  0.08823047    -0.00200
Br2747     Br  0.81303200  0.85139164  0.15023663     0.00300
Br2748     Br  0.74906715  0.90837129  0.04869861    -0.04100
Br2749     Br  0.69320975  0.91781409  0.16957747     0.00400
Br2750     Br  0.73506864  0.84396809  0.06871472    -0.03400
Br2751     Br  0.76115005  0.85011734  0.16552928    -0.04300
Br2752     Br  0.80109711  0.91123190  0.03537824    -0.00300
loop_ 
_geom_bond_atom_site_label_1 
_geom_bond_atom_site_label_2 
_geom_bond_distance 
_geom_bond_site_symmetry_2 
_ccdc_geom_bond_type 
O1           Ni7   1.935       .  S
O1           C22   1.272       .  A
O2          Ni25   1.920       .  S
O2           C11   1.270       .  A
O3           Ni7   1.917       .  S
O3          Ni25   1.916       .  S
O3          Ni19   1.921       .  S
O3           H26   0.964       .  S
C4           O21   1.276       .  A
C4           O13   1.277       .  A
C4         C2702   1.479       .  S
O5          Ni24   1.932       .  S
O5           C11   1.271       .  A
O6          Ni24   1.913       .  S
O6            C8   1.270       .  A
Ni7          O10   1.921       .  S
Ni7          O12   1.908       .  S
C8           O18   1.271       .  A
C8         C2653   1.496       .  S
O9          Ni25   1.923       .  S
O9           C15   1.275       .  A
O10          C15   1.274       .  A
C11        C2633   1.482       .  S
O12          C14   1.270       .  A
O13         Ni24   1.927       .  S
C14          O20   1.278       .  A
C14        C2733   1.501       .  S
C15        C2682   1.492       .  S
H16          O17   0.966       .  S
O17         Ni25   1.910       .  S
O17         Ni19   1.908       .  S
O17         Ni24   1.912       .  S
O18         Ni19   1.936       .  S
Ni19         O23   1.906       .  S
Ni19         O21   1.919       .  S
O20         Ni25   1.948       .  S
C22          O23   1.267       .  A
C22        C2722   1.480       .  S
O27         Ni33   1.932       .  S
O27          C48   1.272       .  A
O28         Ni51   1.935       .  S
O28          C37   1.275       .  A
O29         Ni33   1.906       .  S
O29         Ni51   1.915       .  S
O29         Ni45   1.917       .  S
O29          H52   0.966       .  S
C30          O47   1.278       .  A
C30          O39   1.275       .  A
C30        C2673   1.479       .  S
O31         Ni50   1.923       .  S
O31          C37   1.269       .  A
O32         Ni50   1.915       .  S
O32          C34   1.270       .  A
Ni33         O36   1.919       .  S
Ni33         O38   1.912       .  S
C34          O44   1.274       .  A
C34        C2573   1.494       .  S
O35         Ni51   1.927       .  S
O35          C41   1.279       .  A
O36          C41   1.276       .  A
C37        C2553   1.514       .  S
O38          C40   1.271       .  A
O39         Ni50   1.919       .  S
C40          O46   1.279       .  A
C40        C2613   1.495       .  S
C41        C2693   1.483       .  S
H42          O43   0.966       .  S
O43         Ni51   1.919       .  S
O43         Ni45   1.912       .  S
O43         Ni50   1.908       .  S
O44         Ni45   1.941       .  S
Ni45         O49   1.921       .  S
Ni45         O47   1.924       .  S
O46         Ni51   1.950       .  S
C48          O49   1.271       .  A
C48        C2593   1.486       .  S
O53         Ni59   1.928       .  S
O53          C74   1.271       .  A
O54         Ni77   1.920       .  S
O54          C63   1.269       .  A
O55         Ni59   1.904       .  S
O55         Ni77   1.910       .  S
O55         Ni71   1.924       .  S
O55          H78   0.965       .  S
C56          O73   1.283       .  A
C56          O65   1.278       .  A
C56        C2493   1.483       .  S
O57         Ni76   1.911       .  S
O57          C63   1.264       .  A
O58         Ni76   1.894       .  S
O58          C60   1.264       .  A
Ni59         O62   1.920       .  S
Ni59         O64   1.913       .  S
C60          O70   1.271       .  A
C60        C2482   1.486       .  S
O61         Ni77   1.926       .  S
O61          C67   1.278       .  A
O62          C67   1.276       .  A
C63        C2453   1.476       .  S
O64          C66   1.270       .  A
O65         Ni76   1.919   1_556  S
C66          O72   1.275       .  A
C66        C2742   1.488       .  S
C67        C2522   1.482       .  S
H68          O69   0.966       .  S
O69         Ni77   1.918       .  S
O69         Ni71   1.899       .  S
O69         Ni76   1.900       .  S
O70         Ni71   1.934       .  S
Ni71         O75   1.911       .  S
Ni71         O73   1.933   1_554  S
O72         Ni77   1.936       .  S
C74          O75   1.268       .  A
C74        C2533   1.472       .  S
O79         Ni85   1.936       .  S
O79         C100   1.272       .  A
O80        Ni103   1.949       .  S
O80          C89   1.276       .  A
O81         Ni85   1.908       .  S
O81        Ni103   1.926       .  S
O81         Ni97   1.916       .  S
O81         H104   0.964       .  S
C82          O99   1.278       .  A
C82          O91   1.276       .  A
C82        C2513   1.480       .  S
O83        Ni102   1.927       .  S
O83          C89   1.268       .  A
O84        Ni102   1.899       .  S
O84          C86   1.267       .  A
Ni85         O88   1.915       .  S
Ni85         O90   1.917       .  S
C86          O96   1.277       .  A
C86        C2422   1.491       .  S
O87        Ni103   1.934       .  S
O87          C93   1.281       .  A
O88          C93   1.275       .  A
C89        C2393   1.507       .  S
O90          C92   1.272       .  A
O91        Ni102   1.922       .  S
C92          O98   1.274       .  A
C92        C2622   1.493       .  S
C93        C2502   1.483       .  S
H94          O95   0.966       .  S
O95        Ni103   1.918       .  S
O95         Ni97   1.925       .  S
O95        Ni102   1.910       .  S
O96         Ni97   1.948       .  S
Ni97        O101   1.948       .  S
Ni97         O99   1.921       .  S
O98        Ni103   1.935       .  S
C100        O101   1.278       .  A
C100       C2442   1.509       .  S
O105       Ni111   1.956       .  S
O105        C126   1.277       .  A
O106       Ni129   1.959       .  S
O106        C115   1.279       .  A
O107       Ni111   1.902       .  S
O107       Ni129   1.930       .  S
O107       Ni123   1.916       .  S
O107        H130   0.966       .  S
C108        O125   1.281       .  A
C108        O117   1.278       .  A
C108       C2342   1.485       .  S
O109       Ni128   1.926       .  S
O109        C115   1.269       .  A
O110       Ni128   1.910       .  S
O110        C112   1.269       .  A
Ni111       O114   1.928       .  S
Ni111       O116   1.914       .  S
C112        O122   1.276       .  A
C112       C2293   1.497       .  S
O113       Ni129   1.938       .  S
O113        C119   1.282       .  A
O114        C119   1.279       .  A
C115       C2322   1.522       .  S
O116        C118   1.272       .  A
O117       Ni128   1.920       .  S
C118        O124   1.275       .  A
C118       C2373   1.485       .  S
C119       C2353   1.506       .  S
H120        O121   0.966       .  S
O121       Ni129   1.918       .  S
O121       Ni123   1.913       .  S
O121       Ni128   1.901       .  S
O122       Ni123   1.944       .  S
Ni123       O127   1.941       .  S
Ni123       O125   1.931       .  S
O124       Ni129   1.934       .  S
C126        O127   1.277       .  A
C126       C2433   1.513       .  S
O131       Ni137   1.934       .  S
O131        C152   1.272       .  A
O132       Ni155   1.921       .  S
O132        C141   1.269       .  A
O133       Ni137   1.909       .  S
O133       Ni155   1.911       .  S
O133       Ni149   1.919       .  S
O133        H156   0.963       .  S
C134        O151   1.279       .  A
C134        O143   1.278       .  A
C134       C2362   1.481       .  S
O135       Ni154   1.925       .  S
O135        C141   1.269       .  A
O136       Ni154   1.909       .  S
O136        C138   1.268       .  A
Ni137       O140   1.927       .  S
Ni137       O142   1.907       .  S
C138        O148   1.272       .  A
C138       C2233   1.496       .  S
O139       Ni155   1.918       .  S
O139        C145   1.276       .  A
O140        C145   1.277       .  A
C141       C2253   1.484       .  S
O142        C144   1.269       .  A
O143       Ni154   1.929   1_554  S
C144        O150   1.274       .  A
C144       C2273   1.485       .  S
C145       C2333   1.482       .  S
H146        O147   0.966       .  S
O147       Ni155   1.915       .  S
O147       Ni149   1.908       .  S
O147       Ni154   1.908       .  S
O148       Ni149   1.938       .  S
Ni149       O153   1.910       .  S
Ni149       O151   1.927   1_556  S
O150       Ni155   1.935       .  S
C152        O153   1.267       .  A
C152       C2542   1.475       .  S
O157       Ni163   1.939       .  S
O157        C178   1.272       .  A
O158       Ni181   1.927       .  S
O158        C167   1.273       .  A
O159       Ni163   1.917       .  S
O159       Ni181   1.912       .  S
O159       Ni175   1.901       .  S
O159        H182   0.966       .  S
C160        O177   1.266       .  A
C160        O169   1.270       .  A
C160       C2222   1.486       .  S
O161       Ni180   1.918       .  S
O161        C167   1.270       .  A
O162       Ni180   1.900       .  S
O162        C164   1.270       .  A
Ni163       O166   1.929       .  S
Ni163       O168   1.901       .  S
C164        O174   1.279       .  A
C164       C2162   1.479       .  S
O165       Ni181   1.920       .  S
O165        C171   1.274       .  A
O166        C171   1.276       .  A
C167       C2173   1.493       .  S
O168        C170   1.268       .  A
O169       Ni180   1.934       .  S
C170        O176   1.278       .  A
C170       C2382   1.489       .  S
C171       C2202   1.495       .  S
H172        O173   0.966       .  S
O173       Ni181   1.935       .  S
O173       Ni175   1.920       .  S
O173       Ni180   1.922       .  S
O174       Ni175   1.955       .  S
Ni175       O179   1.908       .  S
Ni175       O177   1.911       .  S
O176       Ni181   1.949       .  S
C178        O179   1.266       .  A
C178       C2713   1.479       .  S
O183       Ni189   1.934       .  S
O183        C204   1.271       .  A
O184       Ni207   1.924       .  S
O184        C193   1.269       .  A
O185       Ni189   1.911       .  S
O185       Ni207   1.918       .  S
O185       Ni201   1.913       .  S
O185        H208   0.966       .  S
C186        O203   1.275       .  A
C186        O195   1.274       .  A
C186       C2193   1.483       .  S
O187       Ni206   1.928       .  S
O187        C193   1.270       .  A
O188       Ni206   1.914       .  S
O188        C190   1.271       .  A
Ni189       O192   1.930       .  S
Ni189       O194   1.904       .  S
C190        O200   1.274       .  A
C190       C2113   1.495       .  S
O191       Ni207   1.917       .  S
O191        C197   1.276       .  A
O192        C197   1.277       .  A
C193       C2133   1.488       .  S
O194        C196   1.265       .  A
O195       Ni206   1.924       .  S
C196        O202   1.274       .  A
C196       C2282   1.509       .  S
C197       C2213   1.479       .  S
H198        O199   0.966       .  S
O199       Ni207   1.923       .  S
O199       Ni201   1.919       .  S
O199       Ni206   1.924       .  S
O200       Ni201   1.938       .  S
Ni201       O205   1.916       .  S
Ni201       O203   1.922       .  S
O202       Ni207   1.942       .  S
C204        O205   1.269       .  A
C204       C2602   1.484       .  S
O209       Ni215   1.920   1_554  S
O209        C230   1.267       .  A
O210       Ni233   1.936   1_556  S
O210        C219   1.274   1_556  A
O211       Ni215   1.911   1_554  S
O211       Ni233   1.918       .  S
O211       Ni227   1.920       .  S
O211        H234   0.966       .  S
C212        O229   1.281       .  A
C212        O221   1.277       .  A
C212       C2053   1.478       .  S
O213       Ni232   1.937       .  S
O213        C219   1.273       .  A
O214       Ni232   1.908       .  S
O214        C216   1.270       .  A
Ni215       O218   1.917       .  S
Ni215       O220   1.910       .  S
C216        O226   1.274       .  A
C216       C2093   1.483       .  S
O217       Ni233   1.927   1_556  S
O217        C223   1.280       .  A
O218        C223   1.275       .  A
C219       C2073   1.497   1_554  S
O220        C222   1.269   1_556  A
O221       Ni232   1.918       .  S
C222        O228   1.270       .  A
C222       C2473   1.479       .  S
C223       C2042   1.485       .  S
H224        O225   0.966       .  S
O225       Ni233   1.915       .  S
O225       Ni227   1.919       .  S
O225       Ni232   1.903       .  S
O226       Ni227   1.931       .  S
Ni227       O231   1.946       .  S
Ni227       O229   1.928       .  S
O228       Ni233   1.923       .  S
C230        O231   1.275       .  A
C230       C2013   1.495       .  S
O235       Ni241   1.923       .  S
O235        C256   1.268       .  A
O236       Ni259   1.921       .  S
O236        C245   1.270       .  A
O237       Ni241   1.919       .  S
O237       Ni259   1.919       .  S
O237       Ni253   1.920       .  S
O237        H260   0.966       .  S
C238        O255   1.280       .  A
C238        O247   1.275       .  A
C238       C2033   1.483       .  S
O239       Ni258   1.928       .  S
O239        C245   1.269       .  A
O240       Ni258   1.906       .  S
O240        C242   1.269       .  A
Ni241       O244   1.920       .  S
Ni241       O246   1.904       .  S
C242        O252   1.277       .  A
C242       C1993   1.498       .  S
O243       Ni259   1.923       .  S
O243        C249   1.275       .  A
O244        C249   1.274       .  A
C245       C1973   1.481       .  S
O246        C248   1.267       .  A
O247       Ni258   1.915       .  S
C248        O254   1.275       .  A
C248       C2413   1.493       .  S
C249       C2062   1.489       .  S
H250        O251   0.966       .  S
O251       Ni259   1.912       .  S
O251       Ni253   1.917       .  S
O251       Ni258   1.908       .  S
O252       Ni253   1.950       .  S
Ni253       O257   1.933       .  S
Ni253       O255   1.927       .  S
O254       Ni259   1.945       .  S
C256        O257   1.273       .  A
C256       C1953   1.487       .  S
O261       Ni267   1.923       .  S
O261        C282   1.270       .  A
O262       Ni285   1.919       .  S
O262        C271   1.271       .  A
O263       Ni267   1.903       .  S
O263       Ni285   1.908       .  S
O263       Ni279   1.914       .  S
O263        H286   0.966       .  S
C264        O281   1.278       .  A
C264        O273   1.276       .  A
C264       C1893   1.486   1_554  S
O265       Ni284   1.935       .  S
O265        C271   1.273       .  A
O266       Ni284   1.920       .  S
O266        C268   1.272       .  A
Ni267       O270   1.918       .  S
Ni267       O272   1.916       .  S
C268        O278   1.271       .  A
C268       C2102   1.485       .  S
O269       Ni285   1.928       .  S
O269        C275   1.280       .  A
O270        C275   1.276       .  A
C271       C1942   1.492       .  S
O272        C274   1.271       .  A
O273       Ni284   1.921       .  S
C274        O280   1.273       .  A
C274       C2662   1.490       .  S
C275       C1913   1.486       .  S
H276        O277   0.966       .  S
O277       Ni285   1.914       .  S
O277       Ni279   1.913       .  S
O277       Ni284   1.907       .  S
O278       Ni279   1.924       .  S
Ni279       O283   1.927       .  S
Ni279       O281   1.920       .  S
O280       Ni285   1.933       .  S
C282        O283   1.271       .  A
C282       C1882   1.497       .  S
O287       Ni293   1.916       .  S
O287        C308   1.267       .  A
O288       Ni311   1.920       .  S
O288        C297   1.270       .  A
O289       Ni293   1.907       .  S
O289       Ni311   1.914       .  S
O289       Ni305   1.918       .  S
O289        H312   0.965       .  S
C290        O307   1.277       .  A
C290        O299   1.278       .  A
C290       C1922   1.480       .  S
O291       Ni310   1.943       .  S
O291        C297   1.274       .  A
O292       Ni310   1.916       .  S
O292        C294   1.271       .  A
Ni293       O296   1.915       .  S
Ni293       O298   1.906       .  S
C294        O304   1.277       .  A
C294       C2002   1.504       .  S
O295       Ni311   1.924       .  S
O295        C301   1.277       .  A
O296        C301   1.275       .  A
C297       C1853   1.489       .  S
O298        C300   1.268       .  A
O299       Ni310   1.932       .  S
C300        O306   1.276       .  A
C300       C2582   1.500       .  S
C301       C1902   1.478       .  S
H302        O303   0.966       .  S
O303       Ni311   1.913       .  S
O303       Ni305   1.921       .  S
O303       Ni310   1.911       .  S
O304       Ni305   1.948       .  S
Ni305       O309   1.937       .  S
Ni305       O307   1.918       .  S
O306       Ni311   1.947       .  S
C308        O309   1.273       .  A
C308       C1833   1.502       .  S
O313       Ni319   1.924       .  S
O313        C334   1.269       .  A
O314       Ni337   1.921       .  S
O314        C323   1.270       .  A
O315       Ni319   1.908       .  S
O315       Ni337   1.909       .  S
O315       Ni331   1.916       .  S
O315        H338   0.966       .  S
C316        O333   1.278       .  A
C316        O325   1.276       .  A
C316       C1773   1.489       .  S
O317       Ni336   1.935       .  S
O317        C323   1.272       .  A
O318       Ni336   1.910       .  S
O318        C320   1.270       .  A
Ni319       O322   1.929       .  S
Ni319       O324   1.909       .  S
C320        O330   1.276       .  A
C320       C1813   1.485       .  S
O321       Ni337   1.923       .  S
O321        C327   1.278       .  A
O322        C327   1.277       .  A
C323       C1933   1.492       .  S
O324        C326   1.268       .  A
O325       Ni336   1.924       .  S
C326        O332   1.271       .  A
C326       C2153   1.495       .  S
C327       C1793   1.479       .  S
H328        O329   0.964       .  S
O329       Ni337   1.923       .  S
O329       Ni331   1.917       .  S
O329       Ni336   1.908       .  S
O330       Ni331   1.937       .  S
Ni331       O335   1.928       .  S
Ni331       O333   1.930       .  S
O332       Ni337   1.933       .  S
C334        O335   1.272       .  A
C334       C1762   1.485       .  S
O339       Ni345   1.938       .  S
O339        C360   1.274       .  A
O340       Ni363   1.913       .  S
O340        C349   1.270       .  A
O341       Ni345   1.911       .  S
O341       Ni363   1.907       .  S
O341       Ni357   1.911       .  S
O341        H364   0.966       .  S
C342        O359   1.275       .  A
C342        O351   1.279       .  A
C342       C1802   1.495       .  S
O343       Ni362   1.944       .  S
O343        C349   1.277       .  A
O344       Ni362   1.919       .  S
O344        C346   1.272       .  A
Ni345       O348   1.932       .  S
Ni345       O350   1.920       .  S
C346        O356   1.272       .  A
C346       C1742   1.484       .  S
O347       Ni363   1.922       .  S
O347        C353   1.277       .  A
O348        C353   1.278       .  A
C349       C1862   1.491       .  S
O350        C352   1.272       .  A
O351       Ni362   1.936       .  S
C352        O358   1.274       .  A
C352       C2122   1.497       .  S
C353       C1782   1.483       .  S
H354        O355   0.962       .  S
O355       Ni363   1.916       .  S
O355       Ni357   1.907       .  S
O355       Ni362   1.907       .  S
O356       Ni357   1.928       .  S
Ni357       O361   1.904       .  S
Ni357       O359   1.920       .  S
O358       Ni363   1.941       .  S
C360        O361   1.266       .  A
C360       C1713   1.480       .  S
O365       Ni371   1.923       .  S
O365        C386   1.270       .  A
O366       Ni389   1.919       .  S
O366        C375   1.270       .  A
O367       Ni371   1.909       .  S
O367       Ni389   1.904       .  S
O367       Ni383   1.912       .  S
O367        H390   0.966       .  S
C368        O385   1.276       .  A
C368        O377   1.279       .  A
C368       C1702   1.486       .  S
O369       Ni388   1.946       .  S
O369        C375   1.276       .  A
O370       Ni388   1.917       .  S
O370        C372   1.271       .  A
Ni371       O374   1.920       .  S
Ni371       O376   1.915       .  S
C372        O382   1.276       .  A
C372       C1822   1.493       .  S
O373       Ni389   1.931       .  S
O373        C379   1.282       .  A
O374        C379   1.277       .  A
C375       C1982   1.489       .  S
O376        C378   1.269       .  A
O377       Ni388   1.933       .  S
C378        O384   1.273       .  A
C378       C2302   1.492       .  S
C379       C1682   1.485       .  S
H380        O381   0.965       .  S
O381       Ni389   1.923       .  S
O381       Ni383   1.919       .  S
O381       Ni388   1.911       .  S
O382       Ni383   1.939       .  S
Ni383       O387   1.931       .  S
Ni383       O385   1.921       .  S
O384       Ni389   1.943       .  S
C386        O387   1.271       .  A
C386       C1653   1.495       .  S
O391       Ni397   1.934       .  S
O391        C412   1.272       .  A
O392       Ni415   1.932       .  S
O392        C401   1.273       .  A
O393       Ni397   1.915       .  S
O393       Ni415   1.916       .  S
O393       Ni409   1.910       .  S
O393        H416   0.966       .  S
C394        O411   1.275       .  A
C394        O403   1.275       .  A
C394       C1673   1.483       .  S
O395       Ni414   1.937       .  S
O395        C401   1.272       .  A
O396       Ni414   1.912       .  S
O396        C398   1.272       .  A
Ni397       O400   1.926   1_556  S
Ni397       O402   1.914       .  S
C398        O408   1.275       .  A
C398       C1733   1.486       .  S
O399       Ni415   1.932   1_554  S
O399        C405   1.280       .  A
O400        C405   1.277       .  A
C401       C2082   1.495       .  S
O402        C404   1.270       .  A
O403       Ni414   1.922       .  S
C404        O410   1.272       .  A
C404       C2242   1.495       .  S
C405       C1693   1.495       .  S
H406        O407   0.966       .  S
O407       Ni415   1.923       .  S
O407       Ni409   1.927       .  S
O407       Ni414   1.915       .  S
O408       Ni409   1.936       .  S
Ni409       O413   1.934       .  S
Ni409       O411   1.919       .  S
O410       Ni415   1.936       .  S
C412        O413   1.274       .  A
C412       C1633   1.504       .  S
O417       Ni423   1.930       .  S
O417        C438   1.273       .  A
O418       Ni441   1.899       .  S
O418        C427   1.264       .  A
O419       Ni423   1.919       .  S
O419       Ni441   1.908       .  S
O419       Ni435   1.918       .  S
O419        H442   0.966       .  S
C420        O437   1.276       .  A
C420        O429   1.278       .  A
C420       C1553   1.480       .  S
O421       Ni440   1.938       .  S
O421        C427   1.274       .  A
O422       Ni440   1.914       .  S
O422        C424   1.271       .  A
Ni423       O426   1.942       .  S
Ni423       O428   1.915       .  S
C424        O434   1.281       .  A
C424       C1613   1.510       .  S
O425       Ni441   1.907       .  S
O425        C431   1.270       .  A
O426        C431   1.275       .  A
C427       C1602   1.483       .  S
O428        C430   1.269       .  A
O429       Ni440   1.926       .  S
C430        O436   1.280       .  A
C430       C2313   1.509       .  S
C431       C1582   1.491       .  S
H432        O433   0.964       .  S
O433       Ni441   1.906       .  S
O433       Ni435   1.907       .  S
O433       Ni440   1.907       .  S
O434       Ni435   1.960       .  S
Ni435       O439   1.908       .  S
Ni435       O437   1.919       .  S
O436       Ni441   1.969       .  S
C438        O439   1.269       .  A
C438       C1542   1.473       .  S
O443       Ni449   1.934       .  S
O443        C464   1.275       .  A
O444       Ni467   1.919       .  S
O444        C453   1.270       .  A
O445       Ni449   1.907       .  S
O445       Ni467   1.907       .  S
O445       Ni461   1.912       .  S
O445        H468   0.966       .  S
C446        O463   1.277       .  A
C446        O455   1.274       .  A
C446       C1562   1.489       .  S
O447       Ni466   1.926       .  S
O447        C453   1.268       .  A
O448       Ni466   1.912       .  S
O448        C450   1.270       .  A
Ni449       O452   1.934   1_556  S
Ni449       O454   1.907       .  S
C450        O460   1.273       .  A
C450       C1493   1.484       .  S
O451       Ni467   1.924       .  S
O451        C457   1.276   1_556  A
O452        C457   1.276       .  A
C453       C1513   1.477       .  S
O454        C456   1.269       .  A
O455       Ni466   1.917       .  S
C456        O462   1.276       .  A
C456       C1482   1.496       .  S
C457       C1573   1.501       .  S
H458        O459   0.966       .  S
O459       Ni467   1.921       .  S
O459       Ni461   1.917       .  S
O459       Ni466   1.914       .  S
O460       Ni461   1.929       .  S
Ni461       O465   1.921       .  S
Ni461       O463   1.929       .  S
O462       Ni467   1.948       .  S
C464        O465   1.272       .  A
C464       C2262   1.494       .  S
O469       Ni475   1.927   1_554  S
O469        C490   1.269       .  A
O470       Ni493   1.903       .  S
O470        C479   1.268       .  A
O471       Ni475   1.908   1_554  S
O471       Ni493   1.893       .  S
O471       Ni487   1.905       .  S
O471        H494   0.963       .  S
C472        O489   1.269       .  A
C472        O481   1.276       .  A
C472       C1442   1.482       .  S
O473       Ni492   1.931       .  S
O473        C479   1.272       .  A
O474       Ni492   1.901       .  S
O474        C476   1.267       .  A
Ni475       O478   1.915       .  S
Ni475       O480   1.902       .  S
C476        O486   1.278       .  A
C476       C1453   1.488       .  S
O477       Ni493   1.932   1_556  S
O477        C483   1.278       .  A
O478        C483   1.275       .  A
C479       C1522   1.474       .  S
O480        C482   1.266   1_556  A
O481       Ni492   1.943       .  S
C482        O488   1.274       .  A
C482       C1393   1.498       .  S
C483       C1422   1.496       .  S
H484        O485   0.966       .  S
O485       Ni493   1.927       .  S
O485       Ni487   1.916       .  S
O485       Ni492   1.914       .  S
O486       Ni487   1.954       .  S
Ni487       O491   1.907       .  S
Ni487       O489   1.907       .  S
O488       Ni493   1.939       .  S
C490        O491   1.266       .  A
C490       C2462   1.469       .  S
O495       Ni501   1.927       .  S
O495        C516   1.268       .  A
O496       Ni519   1.942       .  S
O496        C505   1.276       .  A
O497       Ni501   1.913       .  S
O497       Ni519   1.918       .  S
O497       Ni513   1.900       .  S
O497        H520   0.964       .  S
C498        O515   1.268       .  A
C498        O507   1.272       .  A
C498       C1413   1.491       .  S
O499       Ni518   1.930       .  S
O499        C505   1.270       .  A
O500       Ni518   1.904       .  S
O500        C502   1.270       .  A
Ni501       O504   1.916       .  S
Ni501       O506   1.897       .  S
C502        O512   1.284       .  A
C502       C1373   1.496       .  S
O503       Ni519   1.929       .  S
O503        C509   1.280       .  A
O504        C509   1.274       .  A
C505       C1622   1.501       .  S
O506        C508   1.266       .  A
O507       Ni518   1.937       .  S
C508        O514   1.275       .  A
C508       C1353   1.486       .  S
C509       C1433   1.487       .  S
H510        O511   0.964       .  S
O511       Ni519   1.942       .  S
O511       Ni513   1.937       .  S
O511       Ni518   1.921       .  S
O512       Ni513   1.963       .  S
Ni513       O517   1.945       .  S
Ni513       O515   1.910       .  S
O514       Ni519   1.943       .  S
C516        O517   1.275       .  A
C516       C2402   1.503       .  S
O521       Ni527   1.902       .  S
O521        C542   1.265       .  A
O522       Ni545   1.916       .  S
O522        C531   1.269       .  A
O523       Ni527   1.919       .  S
O523       Ni545   1.924       .  S
O523       Ni539   1.942       .  S
O523        H546   0.965       .  S
C524        O541   1.274       .  A
C524        O533   1.275       .  A
C524       C1293   1.472       .  S
O525       Ni544   1.944       .  S
O525        C531   1.274       .  A
O526       Ni544   1.905       .  S
O526        C528   1.270       .  A
Ni527       O530   1.928       .  S
Ni527       O532   1.897       .  S
C528        O538   1.276       .  A
C528       C1462   1.484       .  S
O529       Ni545   1.909       .  S
O529        C535   1.265       .  A
O530        C535   1.267       .  A
C531       C1342   1.490       .  S
O532        C534   1.268       .  A
O533       Ni544   1.930       .  S
C534        O540   1.282       .  A
C534       C1273   1.491       .  S
C535       C1313   1.485       .  S
H536        O537   0.943       .  S
O537       Ni545   1.900       .  S
O537       Ni539   1.913       .  S
O537       Ni544   1.909       .  S
O538       Ni539   1.939       .  S
Ni539       O543   1.939       .  S
Ni539       O541   1.915       .  S
O540       Ni545   1.964       .  S
C542        O543   1.274       .  A
C542       C2642   1.488       .  S
O547       Ni553   1.913       .  S
O547        C568   1.269       .  A
O548       Ni571   1.916       .  S
O548        C557   1.269       .  A
O549       Ni553   1.915       .  S
O549       Ni571   1.917       .  S
O549       Ni565   1.930       .  S
O549        H572   0.965       .  S
C550        O567   1.275       .  A
C550        O559   1.273       .  A
C550       C1322   1.487       .  S
O551       Ni570   1.935       .  S
O551        C557   1.272       .  A
O552       Ni570   1.904       .  S
O552        C554   1.270       .  A
Ni553       O556   1.930       .  S
Ni553       O558   1.893       .  S
C554        O564   1.275       .  A
C554       C1382   1.478       .  S
O555       Ni571   1.920       .  S
O555        C561   1.269       .  A
O556        C561   1.267       .  A
C557       C1253   1.497       .  S
O558        C560   1.268       .  A
O559       Ni570   1.920       .  S
C560        O566   1.282       .  A
C560       C1242   1.481       .  S
C561       C1302   1.491       .  S
H562        O563   0.963       .  S
O563       Ni571   1.911       .  S
O563       Ni565   1.920       .  S
O563       Ni570   1.917       .  S
O564       Ni565   1.939       .  S
Ni565       O569   1.930       .  S
Ni565       O567   1.923       .  S
O566       Ni571   1.967       .  S
C568        O569   1.273       .  A
C568       C2562   1.489       .  S
O573       Ni579   1.920       .  S
O573        C594   1.266       .  A
O574       Ni597   1.915       .  S
O574        C583   1.269       .  A
O575       Ni579   1.916       .  S
O575       Ni597   1.914       .  S
O575       Ni591   1.911       .  S
O575        H598   0.966       .  S
C576        O593   1.271       .  A
C576        O585   1.271       .  A
C576       C1193   1.492       .  S
O577       Ni596   1.932       .  S
O577        C583   1.271       .  A
O578       Ni596   1.908       .  S
O578        C580   1.272       .  A
Ni579       O582   1.925       .  S
Ni579       O584   1.893       .  S
C580        O590   1.277       .  A
C580       C1593   1.471       .  S
O581       Ni597   1.919       .  S
O581        C587   1.275       .  A
O582        C587   1.274       .  A
C583       C1333   1.487       .  S
O584        C586   1.265       .  A
O585       Ni596   1.935       .  S
C586        O592   1.271       .  A
C586       C1173   1.475       .  S
C587       C1213   1.484       .  S
H588        O589   0.963       .  S
O589       Ni597   1.933       .  S
O589       Ni591   1.925       .  S
O589       Ni596   1.922       .  S
O590       Ni591   1.943       .  S
Ni591       O595   1.932       .  S
Ni591       O593   1.919       .  S
O592       Ni597   1.932       .  S
C594        O595   1.271       .  A
C594       C2182   1.484       .  S
O599       Ni605   1.924       .  S
O599        C620   1.272       .  A
O600       Ni623   1.916       .  S
O600        C609   1.266       .  A
O601       Ni605   1.914       .  S
O601       Ni623   1.917       .  S
O601       Ni617   1.927       .  S
O601        H624   0.966       .  S
C602        O619   1.279       .  A
C602        O611   1.275       .  A
C602       C1222   1.489       .  S
O603       Ni622   1.943       .  S
O603        C609   1.272       .  A
O604       Ni622   1.910       .  S
O604        C606   1.270       .  A
Ni605       O608   1.943       .  S
Ni605       O610   1.909       .  S
C606        O616   1.272       .  A
C606       C1502   1.482       .  S
O607       Ni623   1.898       .  S
O607        C613   1.265       .  A
O608        C613   1.274       .  A
C609       C1262   1.502       .  S
O610        C612   1.268       .  A
O611       Ni622   1.921       .  S
C612        O618   1.278       .  A
C612       C1162   1.509       .  S
C613       C1202   1.481       .  S
H614        O615   0.966       .  S
O615       Ni623   1.904       .  S
O615       Ni617   1.925       .  S
O615       Ni622   1.922       .  S
O616       Ni617   1.930       .  S
Ni617       O621   1.931       .  S
Ni617       O619   1.930       .  S
O618       Ni623   1.959       .  S
C620        O621   1.275       .  A
C620       C2142   1.496       .  S
O625       Ni631   1.938       .  S
O625        C646   1.275       .  A
O626       Ni649   1.904       .  S
O626        C635   1.266       .  A
O627       Ni631   1.901       .  S
O627       Ni649   1.896       .  S
O627       Ni643   1.918       .  S
O627        H650   0.966       .  S
C628        O645   1.281       .  A
C628        O637   1.277       .  A
C628       C1093   1.488       .  S
O629       Ni648   1.927       .  S
O629        C635   1.272       .  A
O630       Ni648   1.926       .  S
O630        C632   1.272       .  A
Ni631       O634   1.935   1_554  S
Ni631       O636   1.919       .  S
C632        O642   1.271       .  A
C632       C2022   1.511       .  S
O633       Ni649   1.929   1_556  S
O633        C639   1.280       .  A
O634        C639   1.281       .  A
C635       C1402   1.470       .  S
O636        C638   1.271       .  A
O637       Ni648   1.929       .  S
C638        O644   1.276       .  A
C638       C1133   1.504       .  S
C639       C1073   1.490       .  S
H640        O641   0.966       .  S
O641       Ni649   1.923       .  S
O641       Ni643   1.900       .  S
O641       Ni648   1.911       .  S
O642       Ni643   1.938       .  S
Ni643       O647   1.900       .  S
Ni643       O645   1.938       .  S
O644       Ni649   1.947       .  S
C646        O647   1.267       .  A
C646       C1122   1.484       .  S
O651       Ni657   1.938       .  S
O651        C672   1.276       .  A
O652       Ni675   1.921       .  S
O652        C661   1.273       .  A
O653       Ni657   1.890       .  S
O653       Ni675   1.901       .  S
O653       Ni669   1.922       .  S
O653        H676   0.966       .  S
C654        O671   1.285       .  A
C654        O663   1.281       .  A
C654       C1082   1.499       .  S
O655       Ni674   1.925       .  S
O655        C661   1.270       .  A
O656       Ni674   1.914       .  S
O656        C658   1.268       .  A
Ni657       O660   1.929       .  S
Ni657       O662   1.922       .  S
C658        O668   1.274       .  A
C658       C1962   1.512       .  S
O659       Ni675   1.935       .  S
O659        C665   1.281       .  A
O660        C665   1.279       .  A
C661       C1362   1.494       .  S
O662        C664   1.272       .  A
O663       Ni674   1.931       .  S
C664        O670   1.283       .  A
C664       C1062   1.514       .  S
C665       C1102   1.500       .  S
H666        O667   0.966       .  S
O667       Ni675   1.917       .  S
O667       Ni669   1.890       .  S
O667       Ni674   1.898       .  S
O668       Ni669   1.953       .  S
Ni669       O673   1.905       .  S
Ni669       O671   1.940       .  S
O670       Ni675   1.961       .  S
C672        O673   1.269       .  A
C672       C1042   1.475       .  S
O677       Ni683   1.933       .  S
O677        C698   1.269       .  A
O678       Ni701   1.931       .  S
O678        C687   1.272       .  A
O679       Ni683   1.896       .  S
O679       Ni701   1.908       .  S
O679       Ni695   1.906       .  S
O679        H702   0.966       .  S
C680        O697   1.275       .  A
C680        O689   1.275       .  A
C680        C982   1.487       .  S
O681       Ni700   1.940       .  S
O681        C687   1.273       .  A
O682       Ni700   1.912       .  S
O682        C684   1.271       .  A
Ni683       O686   1.924       .  S
Ni683       O688   1.902       .  S
C684        O694   1.273       .  A
C684       C1533   1.483       .  S
O685       Ni701   1.930       .  S
O685        C691   1.281       .  A
O686        C691   1.280       .  A
C687       C1662   1.497       .  S
O688        C690   1.267       .  A
O689       Ni700   1.924       .  S
C690        O696   1.272       .  A
C690       C1013   1.486       .  S
C691       C1002   1.480       .  S
H692        O693   0.965       .  S
O693       Ni701   1.922       .  S
O693       Ni695   1.930       .  S
O693       Ni700   1.913       .  S
O694       Ni695   1.932       .  S
Ni695       O699   1.940       .  S
Ni695       O697   1.916       .  S
O696       Ni701   1.932       .  S
C698        O699   1.274       .  A
C698       C1053   1.517       .  S
O703       Ni709   1.929       .  S
O703        C724   1.269       .  A
O704       Ni727   1.940       .  S
O704        C713   1.274       .  A
O705       Ni709   1.896       .  S
O705       Ni727   1.908       .  S
O705       Ni721   1.917       .  S
O705        H728   0.966       .  S
C706        O723   1.281       .  A
C706        O715   1.276       .  A
C706        C993   1.507       .  S
O707       Ni726   1.924       .  S
O707        C713   1.269       .  A
O708       Ni726   1.915       .  S
O708        C710   1.270       .  A
Ni709       O712   1.923       .  S
Ni709       O714   1.907       .  S
C710        O720   1.277       .  A
C710       C1473   1.514       .  S
O711       Ni727   1.932       .  S
O711        C717   1.284       .  A
O712        C717   1.280       .  A
C713       C1642   1.498       .  S
O714        C716   1.268       .  A
O715       Ni726   1.922   1_554  S
C716        O722   1.273       .  A
C716        C962   1.488       .  S
C717        C973   1.486       .  S
H718        O719   0.966       .  S
O719       Ni727   1.925       .  S
O719       Ni721   1.923       .  S
O719       Ni726   1.900       .  S
O720       Ni721   1.947       .  S
Ni721       O725   1.947       .  S
Ni721       O723   1.938   1_556  S
O722       Ni727   1.939       .  S
C724        O725   1.277       .  A
C724       C1142   1.524       .  S
O729       Ni735   1.927       .  S
O729        C750   1.272       .  A
O730       Ni753   1.927       .  S
O730        C739   1.274       .  A
O731       Ni735   1.913       .  S
O731       Ni753   1.920       .  S
O731       Ni747   1.930       .  S
O731        H754   0.966       .  S
C732        O749   1.269       .  A
C732        O741   1.268       .  A
C732        C922   1.498       .  S
O733       Ni752   1.917       .  S
O733        C739   1.271       .  A
O734       Ni752   1.889       .  S
O734        C736   1.269       .  A
Ni735       O738   1.936       .  S
Ni735       O740   1.902       .  S
C736        O746   1.278       .  A
C736       C1182   1.471       .  S
O737       Ni753   1.925       .  S
O737        C743   1.272       .  A
O738        C743   1.272       .  A
C739       C1753   1.487       .  S
O740        C742   1.271       .  A
O741       Ni752   1.934       .  S
C742        O748   1.281       .  A
C742       C1022   1.486       .  S
C743        C893   1.496       .  S
H744        O745   0.962       .  S
O745       Ni753   1.928       .  S
O745       Ni747   1.904       .  S
O745       Ni752   1.917       .  S
O746       Ni747   1.945       .  S
Ni747       O751   1.916       .  S
Ni747       O749   1.924       .  S
O748       Ni753   1.954       .  S
C750        O751   1.269       .  A
C750        C942   1.491       .  S
O755       Ni761   1.940       .  S
O755        C776   1.274       .  A
O756       Ni779   1.922       .  S
O756        C765   1.266       .  A
O757       Ni761   1.908       .  S
O757       Ni779   1.920       .  S
O757       Ni773   1.923       .  S
O757        H780   0.966       .  S
C758        O775   1.282       .  A
C758        O767   1.275       .  A
C758        C902   1.489       .  S
O759       Ni778   1.920       .  S
O759        C765   1.265       .  A
O760       Ni778   1.908       .  S
O760        C762   1.267       .  A
Ni761       O764   1.945       .  S
Ni761       O766   1.906       .  S
C762        O772   1.271       .  A
C762       C1153   1.484       .  S
O763       Ni779   1.908       .  S
O763        C769   1.272       .  A
O764        C769   1.279       .  A
C765       C1722   1.485       .  S
O766        C768   1.266       .  A
O767       Ni778   1.919       .  S
C768        O774   1.274       .  A
C768        C953   1.503       .  S
C769        C913   1.479       .  S
H770        O771   0.966       .  S
O771       Ni779   1.918       .  S
O771       Ni773   1.917       .  S
O771       Ni778   1.919       .  S
O772       Ni773   1.935       .  S
Ni773       O777   1.926       .  S
Ni773       O775   1.939       .  S
O774       Ni779   1.946       .  S
C776        O777   1.273       .  A
C776        C873   1.501       .  S
O781       Ni787   1.933       .  S
O781        C802   1.271       .  A
O782       Ni805   1.918       .  S
O782        C791   1.268       .  A
O783       Ni787   1.908       .  S
O783       Ni805   1.909       .  S
O783       Ni799   1.915       .  S
O783        H806   0.966       .  S
C784        O801   1.279       .  A
C784        O793   1.274       .  A
C784        C862   1.488       .  S
O785       Ni804   1.928       .  S
O785        C791   1.270       .  A
O786       Ni804   1.907       .  S
O786        C788   1.269       .  A
Ni787       O790   1.919       .  S
Ni787       O792   1.906       .  S
C788        O798   1.267       .  A
C788       C1282   1.467       .  S
O789       Ni805   1.924       .  S
O789        C795   1.277       .  A
O790        C795   1.276       .  A
C791       C1873   1.484       .  S
O792        C794   1.269       .  A
O793       Ni804   1.917       .  S
C794        O800   1.267       .  A
C794       C1113   1.479       .  S
C795        C833   1.477       .  S
H796        O797   0.966       .  S
O797       Ni805   1.914       .  S
O797       Ni799   1.916       .  S
O797       Ni804   1.909       .  S
O798       Ni799   1.910       .  S
Ni799       O803   1.922       .  S
Ni799       O801   1.927       .  S
O800       Ni805   1.914       .  S
C802        O803   1.270       .  A
C802        C933   1.499       .  S
O807       Ni813   1.934       .  S
O807        C828   1.271       .  A
O808       Ni831   1.925       .  S
O808        C817   1.271       .  A
O809       Ni813   1.923       .  S
O809       Ni831   1.928       .  S
O809       Ni825   1.919       .  S
O809        H832   0.966       .  S
C810        O827   1.272       .  A
C810        O819   1.273       .  A
C810        C842   1.485       .  S
O811       Ni830   1.929       .  S
O811        C817   1.271       .  A
O812       Ni830   1.902       .  S
O812        C814   1.268       .  A
Ni813       O816   1.921       .  S
Ni813       O818   1.904       .  S
C814        O824   1.274       .  A
C814       C1233   1.482       .  S
O815       Ni831   1.919       .  S
O815        C821   1.274       .  A
O816        C821   1.273       .  A
C817       C1842   1.491       .  S
O818        C820   1.269       .  A
O819       Ni830   1.925       .  S
C820        O826   1.272       .  A
C820       C1033   1.474       .  S
C821        C853   1.482       .  S
H822        O823   0.964       .  S
O823       Ni831   1.912       .  S
O823       Ni825   1.917       .  S
O823       Ni830   1.919       .  S
O824       Ni825   1.937       .  S
Ni825       O829   1.927       .  S
Ni825       O827   1.915       .  S
O826       Ni831   1.927       .  S
C828        O829   1.270       .  A
C828        C882   1.491       .  S
C833        C834   1.412   1_554  A
C833        C838   1.411       .  A
C834        C835   1.405       .  A
C834       Br846   1.932   1_556  S
C835        C836   1.407       .  A
C835       Br850   1.930       .  S
C836        C839   1.483       .  S
C836        C837   1.410       .  A
C837        C838   1.409   1_556  A
C837       Br845   1.929       .  S
C838       Br849   1.928       .  S
C839        C840   1.409       .  A
C839        C844   1.405       .  A
C840        C841   1.409       .  A
C840       Br851   1.930       .  S
C841        C842   1.414       .  A
C841       Br847   1.930       .  S
C842        C843   1.418       .  A
C843        C844   1.406       .  A
C843       Br852   1.935       .  S
C844       Br848   1.932       .  S
C853        C854   1.413       .  A
C853        C858   1.414       .  A
C854        C855   1.409       .  A
C854       Br866   1.931       .  S
C855        C856   1.410       .  A
C855       Br870   1.930       .  S
C856        C859   1.487       .  S
C856        C857   1.408       .  A
C857        C858   1.407       .  A
C857       Br865   1.930       .  S
C858       Br869   1.931       .  S
C859        C860   1.410       .  A
C859        C864   1.406       .  A
C860        C861   1.411       .  A
C860       Br871   1.930       .  S
C861        C862   1.415       .  A
C861       Br867   1.931       .  S
C862        C863   1.419       .  A
C863        C864   1.407       .  A
C863       Br872   1.935       .  S
C864       Br868   1.932       .  S
C873        C874   1.418       .  A
C873        C878   1.416       .  A
C874        C875   1.413       .  A
C874       Br886   1.932       .  S
C875        C876   1.409       .  A
C875       Br890   1.931       .  S
C876        C879   1.503       .  S
C876        C877   1.413       .  A
C877        C878   1.417       .  A
C877       Br885   1.929       .  S
C878       Br889   1.929       .  S
C879        C880   1.412       .  A
C879        C884   1.413       .  A
C880        C881   1.412       .  A
C880       Br891   1.929       .  S
C881        C882   1.411       .  A
C881       Br887   1.929       .  S
C882        C883   1.413       .  A
C883        C884   1.416       .  A
C883       Br892   1.928       .  S
C884       Br888   1.928       .  S
C893        C894   1.418       .  A
C893        C898   1.416       .  A
C894        C895   1.410       .  A
C894       Br906   1.932       .  S
C895        C896   1.407       .  A
C895       Br910   1.932       .  S
C896        C899   1.495       .  S
C896        C897   1.411       .  A
C897        C898   1.414       .  A
C897       Br905   1.930       .  S
C898       Br909   1.927       .  S
C899        C900   1.408       .  A
C899        C904   1.412       .  A
C900        C901   1.410       .  A
C900       Br911   1.931       .  S
C901        C902   1.417       .  A
C901       Br907   1.932       .  S
C902        C903   1.413       .  A
C903        C904   1.413       .  A
C903       Br912   1.930       .  S
C904       Br908   1.929       .  S
C913        C914   1.410       .  A
C913        C918   1.410       .  A
C914        C915   1.411   1_556  A
C914       Br926   1.927       .  S
C915        C916   1.410       .  A
C915       Br930   1.928       .  S
C916        C919   1.490       .  S
C916        C917   1.410       .  A
C917        C918   1.408   1_554  A
C917       Br925   1.930       .  S
C918       Br929   1.930       .  S
C919        C920   1.409       .  A
C919        C924   1.405       .  A
C920        C921   1.413       .  A
C920       Br931   1.930       .  S
C921        C922   1.419       .  A
C921       Br927   1.932       .  S
C922        C923   1.423       .  A
C923        C924   1.409       .  A
C923       Br932   1.935       .  S
C924       Br928   1.933       .  S
C933        C934   1.421       .  A
C933        C938   1.418       .  A
C934        C935   1.412       .  A
C934       Br946   1.934       .  S
C935        C936   1.407       .  A
C935       Br950   1.932       .  S
C936        C939   1.494       .  S
C936        C937   1.410       .  A
C937        C938   1.412       .  A
C937       Br945   1.931       .  S
C938       Br949   1.931       .  S
C939        C940   1.408       .  A
C939        C944   1.411       .  A
C940        C941   1.408       .  A
C940       Br951   1.931       .  S
C941        C942   1.415       .  A
C941       Br947   1.933       .  S
C942        C943   1.415       .  A
C943        C944   1.414       .  A
C943       Br952   1.928       .  S
C944       Br948   1.930       .  S
C953        C954   1.425       .  A
C953        C958   1.422       .  A
C954        C955   1.407       .  A
C954       Br966   1.938       .  S
C955        C956   1.405       .  A
C955       Br970   1.936       .  S
C956        C959   1.493       .  S
C956        C957   1.409       .  A
C957        C958   1.417       .  A
C957       Br965   1.929       .  S
C958       Br969   1.932       .  S
C959        C960   1.412       .  A
C959        C964   1.407       .  A
C960        C961   1.415       .  A
C960       Br971   1.927       .  S
C961        C962   1.411       .  A
C961       Br967   1.927       .  S
C962        C963   1.417       .  A
C963        C964   1.407       .  A
C963       Br972   1.931       .  S
C964       Br968   1.932       .  S
C973        C974   1.417       .  A
C973        C978   1.415       .  A
C974        C975   1.408       .  A
C974       Br986   1.933       .  S
C975        C976   1.406       .  A
C975       Br990   1.931       .  S
C976        C979   1.485       .  S
C976        C977   1.408       .  A
C977        C978   1.409       .  A
C977       Br985   1.930       .  S
C978       Br989   1.931       .  S
C979        C980   1.405       .  A
C979        C984   1.409       .  A
C980        C981   1.406       .  A
C980       Br991   1.933       .  S
C981        C982   1.419       .  A
C981       Br987   1.935       .  S
C982        C983   1.416       .  A
C983        C984   1.411       .  A
C983       Br992   1.931       .  S
C984       Br988   1.929       .  S
C993        C994   1.427       .  A
C993        C998   1.423       .  A
C994        C995   1.409       .  A
C994      Br1006   1.932       .  S
C995        C996   1.403       .  A
C995      Br1010   1.935       .  S
C996        C999   1.490       .  S
C996        C997   1.407       .  A
C997        C998   1.414       .  A
C997      Br1005   1.931       .  S
C998      Br1009   1.933       .  S
C999       C1000   1.409       .  A
C999       C1004   1.411       .  A
C1000      C1001   1.407       .  A
C1000     Br1011   1.930       .  S
C1001      C1002   1.412       .  A
C1001     Br1007   1.931       .  S
C1002      C1003   1.411       .  A
C1003      C1004   1.411       .  A
C1003     Br1012   1.930       .  S
C1004     Br1008   1.928       .  S
C1013      C1014   1.415       .  A
C1013      C1018   1.418       .  A
C1014      C1015   1.410       .  A
C1014     Br1026   1.929       .  S
C1015      C1016   1.408       .  A
C1015     Br1030   1.930       .  S
C1016      C1019   1.483       .  S
C1016      C1017   1.405       .  A
C1017      C1018   1.405       .  A
C1017     Br1025   1.933       .  S
C1018     Br1029   1.934       .  S
C1019      C1020   1.406       .  A
C1019      C1024   1.406       .  A
C1020      C1021   1.406       .  A
C1020     Br1031   1.932       .  S
C1021      C1022   1.419       .  A
C1021     Br1027   1.935       .  S
C1022      C1023   1.415       .  A
C1023      C1024   1.407       .  A
C1023     Br1032   1.925       .  S
C1024     Br1028   1.931       .  S
C1033      C1034   1.412       .  A
C1033      C1038   1.411       .  A
C1034      C1035   1.404       .  A
C1034     Br1046   1.933       .  S
C1035      C1036   1.407       .  A
C1035     Br1050   1.931       .  S
C1036      C1039   1.481       .  S
C1036      C1037   1.408       .  A
C1037      C1038   1.408       .  A
C1037     Br1045   1.929       .  S
C1038     Br1049   1.927       .  S
C1039      C1040   1.408       .  A
C1039      C1044   1.408       .  A
C1040      C1041   1.407       .  A
C1040     Br1051   1.929       .  S
C1041      C1042   1.411       .  A
C1041     Br1047   1.930       .  S
C1042      C1043   1.409       .  A
C1043      C1044   1.406       .  A
C1043     Br1052   1.925       .  S
C1044     Br1048   1.931       .  S
C1053      C1054   1.428       .  A
C1053      C1058   1.424       .  A
C1054      C1055   1.415       .  A
C1054     Br1066   1.937       .  S
C1055      C1056   1.408       .  A
C1055     Br1070   1.933       .  S
C1056      C1059   1.508       .  S
C1056      C1057   1.410       .  A
C1057      C1058   1.420       .  A
C1057     Br1065   1.929       .  S
C1058     Br1069   1.932       .  S
C1059      C1060   1.408       .  A
C1059      C1064   1.411       .  A
C1060      C1061   1.416       .  A
C1060     Br1071   1.931       .  S
C1061      C1062   1.422       .  A
C1061     Br1067   1.926       .  S
C1062      C1063   1.419       .  A
C1063      C1064   1.420       .  A
C1063     Br1072   1.925       .  S
C1064     Br1068   1.929       .  S
C1073      C1074   1.415       .  A
C1073      C1078   1.413       .  A
C1074      C1075   1.413       .  A
C1074     Br1086   1.931       .  S
C1075      C1076   1.410       .  A
C1075     Br1090   1.929       .  S
C1076      C1079   1.495       .  S
C1076      C1077   1.410       .  A
C1077      C1078   1.411       .  A
C1077     Br1085   1.929       .  S
C1078     Br1089   1.930       .  S
C1079      C1080   1.407       .  A
C1079      C1084   1.409       .  A
C1080      C1081   1.412       .  A
C1080     Br1091   1.931       .  S
C1081      C1082   1.420       .  A
C1081     Br1087   1.934       .  S
C1082      C1083   1.416       .  A
C1083      C1084   1.413       .  A
C1083     Br1092   1.925       .  S
C1084     Br1088   1.930       .  S
C1093      C1094   1.410       .  A
C1093      C1098   1.413       .  A
C1094      C1095   1.411       .  A
C1094     Br1106   1.921       .  S
C1095      C1096   1.410       .  A
C1095     Br1110   1.930       .  S
C1096      C1099   1.495       .  S
C1096      C1097   1.410       .  A
C1097      C1098   1.412       .  A
C1097     Br1105   1.928       .  S
C1098     Br1109   1.929       .  S
C1099      C1100   1.407       .  A
C1099      C1104   1.409       .  A
C1100      C1101   1.411       .  A
C1100     Br1111   1.932       .  S
C1101      C1102   1.421       .  A
C1101     Br1107   1.934       .  S
C1102      C1103   1.421       .  A
C1103      C1104   1.414       .  A
C1103     Br1112   1.933       .  S
C1104     Br1108   1.930       .  S
C1113      C1114   1.417       .  A
C1113      C1118   1.414       .  A
C1114      C1115   1.405       .  A
C1114     Br1126   1.934       .  S
C1115      C1116   1.406       .  A
C1115     Br1130   1.932       .  S
C1116      C1119   1.479       .  S
C1116      C1117   1.407       .  A
C1117      C1118   1.405       .  A
C1117     Br1125   1.930       .  S
C1118     Br1129   1.933       .  S
C1119      C1120   1.405       .  A
C1119      C1124   1.407       .  A
C1120      C1121   1.408       .  A
C1120     Br1131   1.931       .  S
C1121      C1122   1.419       .  A
C1121     Br1127   1.931       .  S
C1122      C1123   1.416       .  A
C1123      C1124   1.403       .  A
C1123     Br1132   1.934       .  S
C1124     Br1128   1.935       .  S
C1133      C1134   1.418   1_554  A
C1133      C1138   1.417       .  A
C1134      C1135   1.418       .  A
C1134     Br1146   1.931       .  S
C1135      C1136   1.412       .  A
C1135     Br1150   1.928       .  S
C1136      C1139   1.508       .  S
C1136      C1137   1.411   1_556  A
C1137      C1138   1.416       .  A
C1137     Br1145   1.929       .  S
C1138     Br1149   1.930       .  S
C1139      C1140   1.410   1_556  A
C1139      C1144   1.406       .  A
C1140      C1141   1.422       .  A
C1140     Br1151   1.929       .  S
C1141      C1142   1.427   1_554  A
C1141     Br1147   1.931       .  S
C1142      C1143   1.432       .  A
C1143      C1144   1.415       .  A
C1143     Br1152   1.938       .  S
C1144     Br1148   1.935       .  S
C1153      C1154   1.411       .  A
C1153      C1158   1.411       .  A
C1154      C1155   1.413       .  A
C1154     Br1166   1.929       .  S
C1155      C1156   1.412       .  A
C1155     Br1170   1.928       .  S
C1156      C1159   1.496       .  S
C1156      C1157   1.411       .  A
C1157      C1158   1.410       .  A
C1157     Br1165   1.930       .  S
C1158     Br1169   1.931       .  S
C1159      C1160   1.406       .  A
C1159      C1164   1.408       .  A
C1160      C1161   1.411       .  A
C1160     Br1171   1.935       .  S
C1161      C1162   1.427       .  A
C1161     Br1167   1.937       .  S
C1162      C1163   1.424       .  A
C1163      C1164   1.416       .  A
C1163     Br1172   1.933       .  S
C1164     Br1168   1.931       .  S
C1173      C1174   1.414       .  A
C1173      C1178   1.413       .  A
C1174      C1175   1.401       .  A
C1174     Br1186   1.935       .  S
C1175      C1176   1.406       .  A
C1175     Br1190   1.933       .  S
C1176      C1179   1.475       .  S
C1176      C1177   1.407       .  A
C1177      C1178   1.406       .  A
C1177     Br1185   1.931       .  S
C1178     Br1189   1.926       .  S
C1179      C1180   1.408       .  A
C1179      C1184   1.407       .  A
C1180      C1181   1.405       .  A
C1180     Br1191   1.931       .  S
C1181      C1182   1.412       .  A
C1181     Br1187   1.931       .  S
C1182      C1183   1.412       .  A
C1183      C1184   1.402       .  A
C1183     Br1192   1.933       .  S
C1184     Br1188   1.932       .  S
C1193      C1194   1.414       .  A
C1193      C1198   1.419       .  A
C1194      C1195   1.411       .  A
C1194     Br1206   1.927       .  S
C1195      C1196   1.409       .  A
C1195     Br1210   1.930       .  S
C1196      C1199   1.490       .  S
C1196      C1197   1.407       .  A
C1197      C1198   1.410       .  A
C1197     Br1205   1.932       .  S
C1198     Br1209   1.933       .  S
C1199      C1200   1.410       .  A
C1199      C1204   1.410       .  A
C1200      C1201   1.409       .  A
C1200     Br1211   1.928       .  S
C1201      C1202   1.411       .  A
C1201     Br1207   1.931       .  S
C1202      C1203   1.413       .  A
C1203      C1204   1.409       .  A
C1203     Br1212   1.931       .  S
C1204     Br1208   1.930       .  S
C1213      C1214   1.414       .  A
C1213      C1218   1.414       .  A
C1214      C1215   1.407       .  A
C1214     Br1226   1.932       .  S
C1215      C1216   1.408       .  A
C1215     Br1230   1.930       .  S
C1216      C1219   1.489       .  S
C1216      C1217   1.410       .  A
C1217      C1218   1.411       .  A
C1217     Br1225   1.929       .  S
C1218     Br1229   1.931       .  S
C1219      C1220   1.406       .  A
C1219      C1224   1.410       .  A
C1220      C1221   1.408       .  A
C1220     Br1231   1.932       .  S
C1221      C1222   1.418   1_554  A
C1221     Br1227   1.933   1_554  S
C1222      C1223   1.415       .  A
C1223      C1224   1.412   1_556  A
C1223     Br1232   1.930       .  S
C1224     Br1228   1.929       .  S
C1233      C1234   1.414       .  A
C1233      C1238   1.414       .  A
C1234      C1235   1.408       .  A
C1234     Br1246   1.933       .  S
C1235      C1236   1.408       .  A
C1235     Br1250   1.930       .  S
C1236      C1239   1.483       .  S
C1236      C1237   1.407       .  A
C1237      C1238   1.406       .  A
C1237     Br1245   1.931       .  S
C1238     Br1249   1.927       .  S
C1239      C1240   1.409       .  A
C1239      C1244   1.406       .  A
C1240      C1241   1.410       .  A
C1240     Br1251   1.929       .  S
C1241      C1242   1.412       .  A
C1241     Br1247   1.925       .  S
C1242      C1243   1.416       .  A
C1243      C1244   1.404       .  A
C1243     Br1252   1.933       .  S
C1244     Br1248   1.933       .  S
C1253      C1254   1.417       .  A
C1253      C1258   1.418       .  A
C1254      C1255   1.414       .  A
C1254     Br1266   1.931       .  S
C1255      C1256   1.410       .  A
C1255     Br1270   1.929       .  S
C1256      C1259   1.496       .  S
C1256      C1257   1.408       .  A
C1257      C1258   1.411       .  A
C1257     Br1265   1.931       .  S
C1258     Br1269   1.933       .  S
C1259      C1260   1.408       .  A
C1259      C1264   1.409       .  A
C1260      C1261   1.412       .  A
C1260     Br1271   1.932       .  S
C1261      C1262   1.420       .  A
C1261     Br1267   1.932       .  S
C1262      C1263   1.420       .  A
C1263      C1264   1.413       .  A
C1263     Br1272   1.929       .  S
C1264     Br1268   1.931       .  S
C1273      C1274   1.421       .  A
C1273      C1278   1.422       .  A
C1274      C1275   1.408       .  A
C1274     Br1286   1.924       .  S
C1275      C1276   1.403       .  A
C1275     Br1290   1.932       .  S
C1276      C1279   1.477       .  S
C1276      C1277   1.404       .  A
C1277      C1278   1.404       .  A
C1277     Br1285   1.935       .  S
C1278     Br1289   1.937       .  S
C1279      C1280   1.407       .  A
C1279      C1284   1.408       .  A
C1280      C1281   1.404       .  A
C1280     Br1291   1.929       .  S
C1281      C1282   1.410       .  A
C1281     Br1287   1.930       .  S
C1282      C1283   1.410       .  A
C1283      C1284   1.404       .  A
C1283     Br1292   1.932       .  S
C1284     Br1288   1.931       .  S
C1293      C1294   1.407   1_554  A
C1293      C1298   1.408       .  A
C1294      C1295   1.406       .  A
C1294     Br1306   1.929   1_556  S
C1295      C1296   1.413       .  A
C1295     Br1310   1.931       .  S
C1296      C1299   1.490       .  S
C1296      C1297   1.413       .  A
C1297      C1298   1.410   1_556  A
C1297     Br1305   1.929       .  S
C1298     Br1309   1.929       .  S
C1299      C1300   1.407       .  A
C1299      C1304   1.412       .  A
C1300      C1301   1.405       .  A
C1300     Br1311   1.935       .  S
C1301      C1302   1.419       .  A
C1301     Br1307   1.936       .  S
C1302      C1303   1.417       .  A
C1303      C1304   1.413       .  A
C1303     Br1312   1.931       .  S
C1304     Br1308   1.930       .  S
C1313      C1314   1.415       .  A
C1313      C1318   1.414       .  A
C1314      C1315   1.408       .  A
C1314     Br1326   1.932       .  S
C1315      C1316   1.409       .  A
C1315     Br1330   1.932       .  S
C1316      C1319   1.489       .  S
C1316      C1317   1.410       .  A
C1317      C1318   1.409       .  A
C1317     Br1325   1.931       .  S
C1318     Br1329   1.931       .  S
C1319      C1320   1.410       .  A
C1319      C1324   1.407       .  A
C1320      C1321   1.410       .  A
C1320     Br1331   1.930       .  S
C1321      C1322   1.415       .  A
C1321     Br1327   1.930       .  S
C1322      C1323   1.417       .  A
C1323      C1324   1.407       .  A
C1323     Br1332   1.933       .  S
C1324     Br1328   1.932       .  S
C1333      C1334   1.410       .  A
C1333      C1338   1.412       .  A
C1334      C1335   1.413       .  A
C1334     Br1346   1.930       .  S
C1335      C1336   1.413       .  A
C1335     Br1350   1.928       .  S
C1336      C1339   1.499       .  S
C1336      C1337   1.411       .  A
C1337      C1338   1.413       .  A
C1337     Br1345   1.929       .  S
C1338     Br1349   1.929       .  S
C1339      C1340   1.412       .  A
C1339      C1344   1.411       .  A
C1340      C1341   1.414       .  A
C1340     Br1351   1.929       .  S
C1341      C1342   1.411       .  A
C1341     Br1347   1.925       .  S
C1342      C1343   1.412       .  A
C1343      C1344   1.413       .  A
C1343     Br1352   1.928       .  S
C1344     Br1348   1.929       .  S
C1353      C1354   1.417       .  A
C1353      C1358   1.413       .  A
C1354      C1355   1.406       .  A
C1354     Br1366   1.934       .  S
C1355      C1356   1.407       .  A
C1355     Br1370   1.932       .  S
C1356      C1359   1.486   1_655  S
C1356      C1357   1.409       .  A
C1357      C1358   1.409       .  A
C1357     Br1365   1.930       .  S
C1358     Br1369   1.924       .  S
C1359      C1360   1.407       .  A
C1359      C1364   1.406       .  A
C1360      C1361   1.411       .  A
C1360     Br1371   1.930       .  S
C1361      C1362   1.419       .  A
C1361     Br1367   1.928       .  S
C1362      C1363   1.423       .  A
C1363      C1364   1.406       .  A
C1363     Br1372   1.937       .  S
C1364     Br1368   1.935   1_455  S
C1373      C1374   1.423       .  A
C1373      C1378   1.416       .  A
C1374      C1375   1.408       .  A
C1374     Br1386   1.936       .  S
C1375      C1376   1.406       .  A
C1375     Br1390   1.935       .  S
C1376      C1379   1.488       .  S
C1376      C1377   1.407       .  A
C1377      C1378   1.411       .  A
C1377     Br1385   1.930       .  S
C1378     Br1389   1.925       .  S
C1379      C1380   1.408       .  A
C1379      C1384   1.411       .  A
C1380      C1381   1.407       .  A
C1380     Br1391   1.930       .  S
C1381      C1382   1.413       .  A
C1381     Br1387   1.931       .  S
C1382      C1383   1.409       .  A
C1383      C1384   1.410       .  A
C1383     Br1392   1.927       .  S
C1384     Br1388   1.929       .  S
C1393      C1394   1.421   1_554  A
C1393      C1398   1.424       .  A
C1394      C1395   1.411       .  A
C1394     Br1406   1.929       .  S
C1395      C1396   1.405       .  A
C1395     Br1410   1.930       .  S
C1396      C1399   1.483       .  S
C1396      C1397   1.404   1_556  A
C1397      C1398   1.406       .  A
C1397     Br1405   1.936       .  S
C1398     Br1409   1.932       .  S
C1399      C1400   1.408   1_656  A
C1399      C1404   1.411   1_655  A
C1400      C1401   1.404       .  A
C1400     Br1411   1.931   1_455  S
C1401      C1402   1.408       .  A
C1401     Br1407   1.931       .  S
C1402      C1403   1.408   1_554  A
C1403      C1404   1.409       .  A
C1403     Br1412   1.928       .  S
C1404     Br1408   1.927       .  S
C1413      C1414   1.416       .  A
C1413      C1418   1.416       .  A
C1414      C1415   1.411       .  A
C1414     Br1426   1.931       .  S
C1415      C1416   1.410       .  A
C1415     Br1430   1.931       .  S
C1416      C1419   1.490       .  S
C1416      C1417   1.408       .  A
C1417      C1418   1.409       .  A
C1417     Br1425   1.931       .  S
C1418     Br1429   1.928       .  S
C1419      C1420   1.409       .  A
C1419      C1424   1.407       .  A
C1420      C1421   1.412       .  A
C1420     Br1431   1.931       .  S
C1421      C1422   1.420       .  A
C1421     Br1427   1.930       .  S
C1422      C1423   1.420       .  A
C1423      C1424   1.407       .  A
C1423     Br1432   1.935       .  S
C1424     Br1428   1.933       .  S
C1433      C1434   1.419       .  A
C1433      C1438   1.414       .  A
C1434      C1435   1.406       .  A
C1434     Br1446   1.935       .  S
C1435      C1436   1.407       .  A
C1435     Br1450   1.933       .  S
C1436      C1439   1.489       .  S
C1436      C1437   1.412       .  A
C1437      C1438   1.411       .  A
C1437     Br1445   1.930       .  S
C1438     Br1449   1.931       .  S
C1439      C1440   1.410       .  A
C1439      C1444   1.411       .  A
C1440      C1441   1.406       .  A
C1440     Br1451   1.932       .  S
C1441      C1442   1.409       .  A
C1441     Br1447   1.925       .  S
C1442      C1443   1.412       .  A
C1443      C1444   1.411       .  A
C1443     Br1452   1.929       .  S
C1444     Br1448   1.929       .  S
C1453      C1454   1.419       .  A
C1453      C1458   1.416       .  A
C1454      C1455   1.405       .  A
C1454     Br1466   1.935       .  S
C1455      C1456   1.406       .  A
C1455     Br1470   1.934       .  S
C1456      C1459   1.483       .  S
C1456      C1457   1.406       .  A
C1457      C1458   1.410       .  A
C1457     Br1465   1.931       .  S
C1458     Br1469   1.923       .  S
C1459      C1460   1.406       .  A
C1459      C1464   1.407       .  A
C1460      C1461   1.405       .  A
C1460     Br1471   1.932       .  S
C1461      C1462   1.418       .  A
C1461     Br1467   1.935       .  S
C1462      C1463   1.415       .  A
C1463      C1464   1.409       .  A
C1463     Br1472   1.928       .  S
C1464     Br1468   1.930       .  S
C1473      C1474   1.425       .  A
C1473      C1478   1.427       .  A
C1474      C1475   1.417       .  A
C1474     Br1486   1.931       .  S
C1475      C1476   1.407       .  A
C1475     Br1490   1.930       .  S
C1476      C1479   1.497   1_455  S
C1476      C1477   1.405       .  A
C1477      C1478   1.412       .  A
C1477     Br1485   1.935   1_456  S
C1478     Br1489   1.931   1_556  S
C1479      C1480   1.410       .  A
C1479      C1484   1.409       .  A
C1480      C1481   1.413       .  A
C1480     Br1491   1.929   1_556  S
C1481      C1482   1.417       .  A
C1481     Br1487   1.930   1_556  S
C1482      C1483   1.416       .  A
C1483      C1484   1.411       .  A
C1483     Br1492   1.930       .  S
C1484     Br1488   1.930       .  S
C1493      C1494   1.413       .  A
C1493      C1498   1.414       .  A
C1494      C1495   1.410       .  A
C1494     Br1506   1.930       .  S
C1495      C1496   1.408       .  A
C1495     Br1510   1.928       .  S
C1496      C1499   1.487       .  S
C1496      C1497   1.408       .  A
C1497      C1498   1.408       .  A
C1497     Br1505   1.932       .  S
C1498     Br1509   1.929       .  S
C1499      C1500   1.409       .  A
C1499      C1504   1.409       .  A
C1500      C1501   1.408       .  A
C1500     Br1511   1.930       .  S
C1501      C1502   1.412       .  A
C1501     Br1507   1.932       .  S
C1502      C1503   1.413       .  A
C1503      C1504   1.410       .  A
C1503     Br1512   1.930       .  S
C1504     Br1508   1.929       .  S
C1513      C1514   1.410       .  A
C1513      C1518   1.409       .  A
C1514      C1515   1.408       .  A
C1514     Br1526   1.929       .  S
C1515      C1516   1.409       .  A
C1515     Br1530   1.930       .  S
C1516      C1519   1.487       .  S
C1516      C1517   1.411       .  A
C1517      C1518   1.410       .  A
C1517     Br1525   1.929   1_556  S
C1518     Br1529   1.927   1_556  S
C1519      C1520   1.410   1_556  A
C1519      C1524   1.411       .  A
C1520      C1521   1.407       .  A
C1520     Br1531   1.929       .  S
C1521      C1522   1.408       .  A
C1521     Br1527   1.929       .  S
C1522      C1523   1.409   1_554  A
C1523      C1524   1.409       .  A
C1523     Br1532   1.930       .  S
C1524     Br1528   1.928       .  S
C1533      C1534   1.409       .  A
C1533      C1538   1.414       .  A
C1534      C1535   1.404       .  A
C1534     Br1546   1.922       .  S
C1535      C1536   1.407       .  A
C1535     Br1550   1.931       .  S
C1536      C1539   1.486       .  S
C1536      C1537   1.409       .  A
C1537      C1538   1.412       .  A
C1537     Br1545   1.928       .  S
C1538     Br1549   1.929       .  S
C1539      C1540   1.410   1_455  A
C1539      C1544   1.410   1_455  A
C1540      C1541   1.407       .  A
C1540     Br1551   1.930   1_655  S
C1541      C1542   1.409       .  A
C1541     Br1547   1.930       .  S
C1542      C1543   1.408       .  A
C1543      C1544   1.409       .  A
C1543     Br1552   1.928       .  S
C1544     Br1548   1.928       .  S
C1553      C1554   1.412       .  A
C1553      C1558   1.412       .  A
C1554      C1555   1.410       .  A
C1554     Br1566   1.931       .  S
C1555      C1556   1.411       .  A
C1555     Br1570   1.929       .  S
C1556      C1559   1.488       .  S
C1556      C1557   1.408       .  A
C1557      C1558   1.407       .  A
C1557     Br1565   1.929       .  S
C1558     Br1569   1.931       .  S
C1559      C1560   1.409       .  A
C1559      C1564   1.407       .  A
C1560      C1561   1.412       .  A
C1560     Br1571   1.929       .  S
C1561      C1562   1.416       .  A
C1561     Br1567   1.931       .  S
C1562      C1563   1.417       .  A
C1563      C1564   1.406       .  A
C1563     Br1572   1.934       .  S
C1564     Br1568   1.934       .  S
C1573      C1574   1.420       .  A
C1573      C1578   1.423       .  A
C1574      C1575   1.413       .  A
C1574     Br1586   1.929       .  S
C1575      C1576   1.410       .  A
C1575     Br1590   1.931       .  S
C1576      C1579   1.493       .  S
C1576      C1577   1.406       .  A
C1577      C1578   1.409       .  A
C1577     Br1585   1.934       .  S
C1578     Br1589   1.936       .  S
C1579      C1580   1.409       .  A
C1579      C1584   1.411       .  A
C1580      C1581   1.408       .  A
C1580     Br1591   1.933       .  S
C1581      C1582   1.418       .  A
C1581     Br1587   1.935       .  S
C1582      C1583   1.416       .  A
C1583      C1584   1.412       .  A
C1583     Br1592   1.932       .  S
C1584     Br1588   1.930       .  S
C1593      C1594   1.408       .  A
C1593      C1598   1.410       .  A
C1594      C1595   1.402       .  A
C1594     Br1606   1.930       .  S
C1595      C1596   1.409       .  A
C1595     Br1610   1.933       .  S
C1596      C1599   1.482       .  S
C1596      C1597   1.410       .  A
C1597      C1598   1.410       .  A
C1597     Br1605   1.927       .  S
C1598     Br1609   1.929       .  S
C1599      C1600   1.408       .  A
C1599      C1604   1.406       .  A
C1600      C1601   1.407       .  A
C1600     Br1611   1.930       .  S
C1601      C1602   1.413       .  A
C1601     Br1607   1.931       .  S
C1602      C1603   1.416       .  A
C1603      C1604   1.407       .  A
C1603     Br1612   1.929       .  S
C1604     Br1608   1.930       .  S
C1613      C1614   1.417       .  A
C1613      C1618   1.422       .  A
C1614      C1615   1.423       .  A
C1614     Br1626   1.928       .  S
C1615      C1616   1.414       .  A
C1615     Br1630   1.927       .  S
C1616      C1619   1.511       .  S
C1616      C1617   1.410       .  A
C1617      C1618   1.414       .  A
C1617     Br1625   1.932       .  S
C1618     Br1629   1.935       .  S
C1619      C1620   1.412       .  A
C1619      C1624   1.414       .  A
C1620      C1621   1.417       .  A
C1620     Br1631   1.928       .  S
C1621      C1622   1.414       .  A
C1621     Br1627   1.925       .  S
C1622      C1623   1.413       .  A
C1623      C1624   1.419       .  A
C1623     Br1632   1.927       .  S
C1624     Br1628   1.928       .  S
C1633      C1634   1.418       .  A
C1633      C1638   1.417       .  A
C1634      C1635   1.418       .  A
C1634     Br1646   1.929       .  S
C1635      C1636   1.411       .  A
C1635     Br1650   1.927       .  S
C1636      C1639   1.501       .  S
C1636      C1637   1.408       .  A
C1637      C1638   1.411       .  A
C1637     Br1645   1.932       .  S
C1638     Br1649   1.923       .  S
C1639      C1640   1.410       .  A
C1639      C1644   1.412       .  A
C1640      C1641   1.411       .  A
C1640     Br1651   1.932       .  S
C1641      C1642   1.417       .  A
C1641     Br1647   1.933       .  S
C1642      C1643   1.414       .  A
C1643      C1644   1.417       .  A
C1643     Br1652   1.926       .  S
C1644     Br1648   1.927       .  S
C1653      C1654   1.414       .  A
C1653      C1658   1.416       .  A
C1654      C1655   1.417       .  A
C1654     Br1666   1.928       .  S
C1655      C1656   1.413       .  A
C1655     Br1670   1.927       .  S
C1656      C1659   1.500       .  S
C1656      C1657   1.409       .  A
C1657      C1658   1.410       .  A
C1657     Br1665   1.932       .  S
C1658     Br1669   1.932       .  S
C1659      C1660   1.413       .  A
C1659      C1664   1.409       .  A
C1660      C1661   1.418       .  A
C1660     Br1671   1.928       .  S
C1661      C1662   1.415       .  A
C1661     Br1667   1.928       .  S
C1662      C1663   1.412       .  A
C1663      C1664   1.410       .  A
C1663     Br1672   1.920       .  S
C1664     Br1668   1.932       .  S
C1673      C1674   1.415       .  A
C1673      C1678   1.414       .  A
C1674      C1675   1.406       .  A
C1674     Br1686   1.934       .  S
C1675      C1676   1.408       .  A
C1675     Br1690   1.932       .  S
C1676      C1679   1.487       .  S
C1676      C1677   1.409       .  A
C1677      C1678   1.410       .  A
C1677     Br1685   1.929       .  S
C1678     Br1689   1.931       .  S
C1679      C1680   1.406       .  A
C1679      C1684   1.411       .  A
C1680      C1681   1.406       .  A
C1680     Br1691   1.932       .  S
C1681      C1682   1.417       .  A
C1681     Br1687   1.933       .  S
C1682      C1683   1.412       .  A
C1683      C1684   1.411       .  A
C1683     Br1692   1.930       .  S
C1684     Br1688   1.929       .  S
C1693      C1694   1.421       .  A
C1693      C1698   1.414       .  A
C1694      C1695   1.411       .  A
C1694     Br1706   1.934       .  S
C1695      C1696   1.407       .  A
C1695     Br1710   1.931       .  S
C1696      C1699   1.492       .  S
C1696      C1697   1.410       .  A
C1697      C1698   1.411       .  A
C1697     Br1705   1.931       .  S
C1698     Br1709   1.926       .  S
C1699      C1700   1.408       .  A
C1699      C1704   1.410       .  A
C1700      C1701   1.409       .  A
C1700     Br1711   1.930       .  S
C1701      C1702   1.414       .  A
C1701     Br1707   1.931       .  S
C1702      C1703   1.414       .  A
C1703      C1704   1.412       .  A
C1703     Br1712   1.931       .  S
C1704     Br1708   1.929       .  S
C1713      C1714   1.413       .  A
C1713      C1718   1.410       .  A
C1714      C1715   1.409       .  A
C1714     Br1726   1.931       .  S
C1715      C1716   1.409       .  A
C1715     Br1730   1.930       .  S
C1716      C1719   1.487       .  S
C1716      C1717   1.409       .  A
C1717      C1718   1.407       .  A
C1717     Br1725   1.929       .  S
C1718     Br1729   1.929       .  S
C1719      C1720   1.408       .  A
C1719      C1724   1.410       .  A
C1720      C1721   1.404       .  A
C1720     Br1731   1.935       .  S
C1721      C1722   1.415       .  A
C1721     Br1727   1.935       .  S
C1722      C1723   1.415       .  A
C1723      C1724   1.414       .  A
C1723     Br1732   1.929       .  S
C1724     Br1728   1.928       .  S
C1733      C1734   1.415       .  A
C1733      C1738   1.412       .  A
C1734      C1735   1.411       .  A
C1734     Br1746   1.932       .  S
C1735      C1736   1.410       .  A
C1735     Br1750   1.929       .  S
C1736      C1739   1.493       .  S
C1736      C1737   1.410       .  A
C1737      C1738   1.410       .  A
C1737     Br1745   1.930       .  S
C1738     Br1749   1.931       .  S
C1739      C1740   1.411       .  A
C1739      C1744   1.410       .  A
C1740      C1741   1.411       .  A
C1740     Br1751   1.929       .  S
C1741      C1742   1.410       .  A
C1741     Br1747   1.930       .  S
C1742      C1743   1.413       .  A
C1743      C1744   1.411       .  A
C1743     Br1752   1.931       .  S
C1744     Br1748   1.930       .  S
C1753      C1754   1.413       .  A
C1753      C1758   1.414       .  A
C1754      C1755   1.414       .  A
C1754     Br1766   1.925       .  S
C1755      C1756   1.410       .  A
C1755     Br1770   1.927       .  S
C1756      C1759   1.491       .  S
C1756      C1757   1.408       .  A
C1757      C1758   1.406       .  A
C1757     Br1765   1.931       .  S
C1758     Br1769   1.931       .  S
C1759      C1760   1.410       .  A
C1759      C1764   1.410       .  A
C1760      C1761   1.413       .  A
C1760     Br1771   1.927       .  S
C1761      C1762   1.411       .  A
C1761     Br1767   1.922       .  S
C1762      C1763   1.412       .  A
C1763      C1764   1.408       .  A
C1763     Br1772   1.932       .  S
C1764     Br1768   1.931       .  S
C1773      C1774   1.414       .  A
C1773      C1778   1.416       .  A
C1774      C1775   1.412       .  A
C1774     Br1786   1.929       .  S
C1775      C1776   1.410       .  A
C1775     Br1790   1.929       .  S
C1776      C1779   1.492       .  S
C1776      C1777   1.408       .  A
C1777      C1778   1.409       .  A
C1777     Br1785   1.930       .  S
C1778     Br1789   1.933       .  S
C1779      C1780   1.411       .  A
C1779      C1784   1.410       .  A
C1780      C1781   1.411       .  A
C1780     Br1791   1.928       .  S
C1781      C1782   1.411       .  A
C1781     Br1787   1.930       .  S
C1782      C1783   1.412       .  A
C1783      C1784   1.410       .  A
C1783     Br1792   1.930       .  S
C1784     Br1788   1.930       .  S
C1793      C1794   1.409       .  A
C1793      C1798   1.410       .  A
C1794      C1795   1.412       .  A
C1794     Br1806   1.929       .  S
C1795      C1796   1.413       .  A
C1795     Br1810   1.928       .  S
C1796      C1799   1.493       .  S
C1796      C1797   1.410       .  A
C1797      C1798   1.408       .  A
C1797     Br1805   1.929       .  S
C1798     Br1809   1.931       .  S
C1799      C1800   1.409       .  A
C1799      C1804   1.409       .  A
C1800      C1801   1.413   1_554  A
C1800     Br1811   1.931       .  S
C1801      C1802   1.419       .  A
C1801     Br1807   1.931       .  S
C1802      C1803   1.416       .  A
C1803      C1804   1.410   1_556  A
C1803     Br1812   1.932       .  S
C1804     Br1808   1.932       .  S
C1813      C1814   1.413       .  A
C1813      C1818   1.412       .  A
C1814      C1815   1.412       .  A
C1814     Br1826   1.931       .  S
C1815      C1816   1.411       .  A
C1815     Br1830   1.928       .  S
C1816      C1819   1.495       .  S
C1816      C1817   1.411       .  A
C1817      C1818   1.411       .  A
C1817     Br1825   1.929       .  S
C1818     Br1829   1.931       .  S
C1819      C1820   1.409       .  A
C1819      C1824   1.410       .  A
C1820      C1821   1.412       .  A
C1820     Br1831   1.930       .  S
C1821      C1822   1.416       .  A
C1821     Br1827   1.931       .  S
C1822      C1823   1.414       .  A
C1823      C1824   1.413       .  A
C1823     Br1832   1.926       .  S
C1824     Br1828   1.930       .  S
C1833      C1834   1.420       .  A
C1833      C1838   1.420       .  A
C1834      C1835   1.418       .  A
C1834     Br1846   1.930       .  S
C1835      C1836   1.411       .  A
C1835     Br1850   1.929       .  S
C1836      C1839   1.497       .  S
C1836      C1837   1.407       .  A
C1837      C1838   1.408       .  A
C1837     Br1845   1.934       .  S
C1838     Br1849   1.935       .  S
C1839      C1840   1.410       .  A
C1839      C1844   1.412       .  A
C1840      C1841   1.409       .  A
C1840     Br1851   1.931       .  S
C1841      C1842   1.415       .  A
C1841     Br1847   1.933       .  S
C1842      C1843   1.412       .  A
C1843      C1844   1.415       .  A
C1843     Br1852   1.926       .  S
C1844     Br1848   1.927       .  S
C1853      C1854   1.410       .  A
C1853      C1858   1.412       .  A
C1854      C1855   1.412       .  A
C1854     Br1866   1.929       .  S
C1855      C1856   1.412   1_565  A
C1855     Br1870   1.930       .  S
C1856      C1859   1.500       .  S
C1856      C1857   1.413   1_545  A
C1857      C1858   1.415       .  A
C1857     Br1865   1.929   1_565  S
C1858     Br1869   1.929       .  S
C1859      C1860   1.413       .  A
C1859      C1864   1.411       .  A
C1860      C1861   1.414       .  A
C1860     Br1871   1.929       .  S
C1861      C1862   1.414       .  A
C1861     Br1867   1.930       .  S
C1862      C1863   1.413       .  A
C1863      C1864   1.411       .  A
C1863     Br1872   1.931       .  S
C1864     Br1868   1.930       .  S
C1873      C1874   1.412       .  A
C1873      C1878   1.413       .  A
C1874      C1875   1.413       .  A
C1874     Br1886   1.928       .  S
C1875      C1876   1.411       .  A
C1875     Br1890   1.927       .  S
C1876      C1879   1.491       .  S
C1876      C1877   1.409       .  A
C1877      C1878   1.406       .  A
C1877     Br1885   1.932       .  S
C1878     Br1889   1.932       .  S
C1879      C1880   1.406       .  A
C1879      C1884   1.409       .  A
C1880      C1881   1.407       .  A
C1880     Br1891   1.933       .  S
C1881      C1882   1.417       .  A
C1881     Br1887   1.926       .  S
C1882      C1883   1.419       .  A
C1883      C1884   1.414       .  A
C1883     Br1892   1.930       .  S
C1884     Br1888   1.929       .  S
C1893      C1894   1.416       .  A
C1893      C1898   1.419       .  A
C1894      C1895   1.409       .  A
C1894     Br1906   1.933   1_556  S
C1895      C1896   1.408       .  A
C1895     Br1910   1.930       .  S
C1896      C1899   1.484       .  S
C1896      C1897   1.406       .  A
C1897      C1898   1.405       .  A
C1897     Br1905   1.933       .  S
C1898     Br1909   1.935       .  S
C1899      C1900   1.410       .  A
C1899      C1904   1.408       .  A
C1900      C1901   1.409       .  A
C1900     Br1911   1.930       .  S
C1901      C1902   1.413       .  A
C1901     Br1907   1.931       .  S
C1902      C1903   1.412       .  A
C1903      C1904   1.405       .  A
C1903     Br1912   1.932       .  S
C1904     Br1908   1.931       .  S
C1913      C1914   1.417       .  A
C1913      C1918   1.414       .  A
C1914      C1915   1.407       .  A
C1914     Br1926   1.934       .  S
C1915      C1916   1.408       .  A
C1915     Br1930   1.931       .  S
C1916      C1919   1.488       .  S
C1916      C1917   1.410       .  A
C1917      C1918   1.410       .  A
C1917     Br1925   1.929       .  S
C1918     Br1929   1.932       .  S
C1919      C1920   1.411       .  A
C1919      C1924   1.409       .  A
C1920      C1921   1.410       .  A
C1920     Br1931   1.929       .  S
C1921      C1922   1.411       .  A
C1921     Br1927   1.930       .  S
C1922      C1923   1.412       .  A
C1923      C1924   1.408       .  A
C1923     Br1932   1.931       .  S
C1924     Br1928   1.931       .  S
C1933      C1934   1.416       .  A
C1933      C1938   1.415       .  A
C1934      C1935   1.410       .  A
C1934     Br1946   1.932       .  S
C1935      C1936   1.408       .  A
C1935     Br1950   1.932       .  S
C1936      C1939   1.494       .  S
C1936      C1937   1.410       .  A
C1937      C1938   1.413       .  A
C1937     Br1945   1.929       .  S
C1938     Br1949   1.929       .  S
C1939      C1940   1.410   1_545  A
C1939      C1944   1.408   1_545  A
C1940      C1941   1.413       .  A
C1940     Br1951   1.929   1_565  S
C1941      C1942   1.416       .  A
C1941     Br1947   1.931       .  S
C1942      C1943   1.415       .  A
C1943      C1944   1.410       .  A
C1943     Br1952   1.927       .  S
C1944     Br1948   1.931   1_565  S
C1953      C1954   1.412       .  A
C1953      C1958   1.409       .  A
C1954      C1955   1.412       .  A
C1954     Br1966   1.931       .  S
C1955      C1956   1.411       .  A
C1955     Br1970   1.929       .  S
C1956      C1959   1.502       .  S
C1956      C1957   1.414       .  A
C1957      C1958   1.416       .  A
C1957     Br1965   1.926       .  S
C1958     Br1969   1.928       .  S
C1959      C1960   1.409       .  A
C1959      C1964   1.409       .  A
C1960      C1961   1.414       .  A
C1960     Br1971   1.931       .  S
C1961      C1962   1.421       .  A
C1961     Br1967   1.933       .  S
C1962      C1963   1.422       .  A
C1963      C1964   1.418       .  A
C1963     Br1972   1.924       .  S
C1964     Br1968   1.931       .  S
C1973      C1974   1.410       .  A
C1973      C1978   1.408       .  A
C1974      C1975   1.411       .  A
C1974     Br1986   1.929       .  S
C1975      C1976   1.411       .  A
C1975     Br1990   1.928   1_565  S
C1976      C1979   1.496   1_565  S
C1976      C1977   1.413       .  A
C1977      C1978   1.412       .  A
C1977     Br1985   1.928       .  S
C1978     Br1989   1.929       .  S
C1979      C1980   1.411       .  A
C1979      C1984   1.411       .  A
C1980      C1981   1.413       .  A
C1980     Br1991   1.929       .  S
C1981      C1982   1.412       .  A
C1981     Br1987   1.928       .  S
C1982      C1983   1.411       .  A
C1983      C1984   1.413       .  A
C1983     Br1992   1.926       .  S
C1984     Br1988   1.929       .  S
C1993      C1994   1.415       .  A
C1993      C1998   1.419       .  A
C1994      C1995   1.418       .  A
C1994     Br2006   1.929       .  S
C1995      C1996   1.414       .  A
C1995     Br2010   1.928       .  S
C1996      C1999   1.502       .  S
C1996      C1997   1.409       .  A
C1997      C1998   1.411       .  A
C1997     Br2005   1.932       .  S
C1998     Br2009   1.934       .  S
C1999      C2000   1.411       .  A
C1999      C2004   1.409       .  A
C2000      C2001   1.416       .  A
C2000     Br2011   1.929       .  S
C2001      C2002   1.418       .  A
C2001     Br2007   1.929       .  S
C2002      C2003   1.422       .  A
C2003      C2004   1.413       .  A
C2003     Br2012   1.934       .  S
C2004     Br2008   1.932       .  S
C2013      C2014   1.411       .  A
C2013      C2018   1.414       .  A
C2014      C2015   1.419       .  A
C2014     Br2026   1.926       .  S
C2015      C2016   1.416       .  A
C2015     Br2030   1.927       .  S
C2016      C2019   1.508       .  S
C2016      C2017   1.412       .  A
C2017      C2018   1.413       .  A
C2017     Br2025   1.930   1_554  S
C2018     Br2029   1.930   1_554  S
C2019      C2020   1.411       .  A
C2019      C2024   1.412       .  A
C2020      C2021   1.419       .  A
C2020     Br2031   1.931       .  S
C2021      C2022   1.424       .  A
C2021     Br2027   1.931       .  S
C2022      C2023   1.419       .  A
C2023      C2024   1.415       .  A
C2023     Br2032   1.933       .  S
C2024     Br2028   1.931       .  S
C2033      C2034   1.417       .  A
C2033      C2038   1.413       .  A
C2034      C2035   1.406       .  A
C2034     Br2046   1.934       .  S
C2035      C2036   1.406       .  A
C2035     Br2050   1.932       .  S
C2036      C2039   1.485       .  S
C2036      C2037   1.409       .  A
C2037      C2038   1.409       .  A
C2037     Br2045   1.929       .  S
C2038     Br2049   1.931       .  S
C2039      C2040   1.409       .  A
C2039      C2044   1.406       .  A
C2040      C2041   1.409       .  A
C2040     Br2051   1.930       .  S
C2041      C2042   1.414       .  A
C2041     Br2047   1.930       .  S
C2042      C2043   1.418       .  A
C2043      C2044   1.407       .  A
C2043     Br2052   1.934       .  S
C2044     Br2048   1.932       .  S
C2053      C2054   1.415       .  A
C2053      C2058   1.411       .  A
C2054      C2055   1.406       .  A
C2054     Br2066   1.933       .  S
C2055      C2056   1.407       .  A
C2055     Br2070   1.931       .  S
C2056      C2059   1.484       .  S
C2056      C2057   1.410       .  A
C2057      C2058   1.409       .  A
C2057     Br2065   1.929       .  S
C2058     Br2069   1.930       .  S
C2059      C2060   1.405       .  A
C2059      C2064   1.408       .  A
C2060      C2061   1.405       .  A
C2060     Br2071   1.932       .  S
C2061      C2062   1.418       .  A
C2061     Br2067   1.935       .  S
C2062      C2063   1.416       .  A
C2063      C2064   1.411       .  A
C2063     Br2072   1.926       .  S
C2064     Br2068   1.931       .  S
C2073      C2074   1.412       .  A
C2073      C2078   1.413   1_556  A
C2074      C2075   1.415       .  A
C2074     Br2086   1.926       .  S
C2075      C2076   1.413       .  A
C2075     Br2090   1.929       .  S
C2076      C2079   1.509   1_565  S
C2076      C2077   1.415       .  A
C2077      C2078   1.418   1_556  A
C2077     Br2085   1.928   1_556  S
C2078     Br2089   1.929       .  S
C2079      C2080   1.416       .  A
C2079      C2084   1.413       .  A
C2080      C2081   1.418       .  A
C2080     Br2091   1.928   1_556  S
C2081      C2082   1.410       .  A
C2081     Br2087   1.928   1_556  S
C2082      C2083   1.412       .  A
C2083      C2084   1.415       .  A
C2083     Br2092   1.929       .  S
C2084     Br2088   1.929       .  S
C2093      C2094   1.415       .  A
C2093      C2098   1.412       .  A
C2094      C2095   1.410       .  A
C2094     Br2106   1.932       .  S
C2095      C2096   1.408       .  A
C2095     Br2110   1.929       .  S
C2096      C2099   1.488       .  S
C2096      C2097   1.409       .  A
C2097      C2098   1.408       .  A
C2097     Br2105   1.931       .  S
C2098     Br2109   1.929       .  S
C2099      C2100   1.409       .  A
C2099      C2104   1.408       .  A
C2100      C2101   1.409       .  A
C2100     Br2111   1.930       .  S
C2101      C2102   1.411       .  A
C2101     Br2107   1.925       .  S
C2102      C2103   1.415       .  A
C2103      C2104   1.409       .  A
C2103     Br2112   1.931       .  S
C2104     Br2108   1.930       .  S
C2113      C2114   1.415       .  A
C2113      C2118   1.418       .  A
C2114      C2115   1.411       .  A
C2114     Br2126   1.932       .  S
C2115      C2116   1.411       .  A
C2115     Br2130   1.931       .  S
C2116      C2119   1.498       .  S
C2116      C2117   1.411       .  A
C2117      C2118   1.414       .  A
C2117     Br2125   1.930       .  S
C2118     Br2129   1.932       .  S
C2119      C2120   1.409       .  A
C2119      C2124   1.411       .  A
C2120      C2121   1.413       .  A
C2120     Br2131   1.931       .  S
C2121      C2122   1.416       .  A
C2121     Br2127   1.925       .  S
C2122      C2123   1.416       .  A
C2123      C2124   1.413       .  A
C2123     Br2132   1.932       .  S
C2124     Br2128   1.930       .  S
C2133      C2134   1.412       .  A
C2133      C2138   1.413       .  A
C2134      C2135   1.416       .  A
C2134     Br2146   1.928       .  S
C2135      C2136   1.413       .  A
C2135     Br2150   1.926       .  S
C2136      C2139   1.497       .  S
C2136      C2137   1.410       .  A
C2137      C2138   1.408       .  A
C2137     Br2145   1.931       .  S
C2138     Br2149   1.932       .  S
C2139      C2140   1.409       .  A
C2139      C2144   1.411       .  A
C2140      C2141   1.410       .  A
C2140     Br2151   1.932       .  S
C2141      C2142   1.416       .  A
C2141     Br2147   1.932       .  S
C2142      C2143   1.416       .  A
C2143      C2144   1.416       .  A
C2143     Br2152   1.927       .  S
C2144     Br2148   1.928       .  S
C2153      C2154   1.420       .  A
C2153      C2158   1.420       .  A
C2154      C2155   1.410       .  A
C2154     Br2166   1.930       .  S
C2155      C2156   1.405       .  A
C2155     Br2170   1.931       .  S
C2156      C2159   1.486       .  S
C2156      C2157   1.407       .  A
C2157      C2158   1.408       .  A
C2157     Br2165   1.933       .  S
C2158     Br2169   1.935       .  S
C2159      C2160   1.410       .  A
C2159      C2164   1.408       .  A
C2160      C2161   1.408       .  A
C2160     Br2171   1.929       .  S
C2161      C2162   1.410       .  A
C2161     Br2167   1.930       .  S
C2162      C2163   1.413       .  A
C2163      C2164   1.408       .  A
C2163     Br2172   1.927       .  S
C2164     Br2168   1.930       .  S
C2173      C2174   1.414       .  A
C2173      C2178   1.416       .  A
C2174      C2175   1.415       .  A
C2174     Br2186   1.927       .  S
C2175      C2176   1.412       .  A
C2175     Br2190   1.928       .  S
C2176      C2179   1.497       .  S
C2176      C2177   1.410       .  A
C2177      C2178   1.409       .  A
C2177     Br2185   1.932       .  S
C2178     Br2189   1.934       .  S
C2179      C2180   1.413       .  A
C2179      C2184   1.411       .  A
C2180      C2181   1.415       .  A
C2180     Br2191   1.927       .  S
C2181      C2182   1.410       .  A
C2181     Br2187   1.926       .  S
C2182      C2183   1.411       .  A
C2183      C2184   1.408       .  A
C2183     Br2192   1.932       .  S
C2184     Br2188   1.932       .  S
C2193      C2194   1.412       .  A
C2193      C2198   1.415       .  A
C2194      C2195   1.411       .  A
C2194     Br2206   1.929       .  S
C2195      C2196   1.410       .  A
C2195     Br2210   1.929       .  S
C2196      C2199   1.489       .  S
C2196      C2197   1.408       .  A
C2197      C2198   1.408       .  A
C2197     Br2205   1.930       .  S
C2198     Br2209   1.931       .  S
C2199      C2200   1.409       .  A
C2199      C2204   1.406       .  A
C2200      C2201   1.411       .  A
C2200     Br2211   1.931       .  S
C2201      C2202   1.418       .  A
C2201     Br2207   1.931       .  S
C2202      C2203   1.420       .  A
C2203      C2204   1.409       .  A
C2203     Br2212   1.935       .  S
C2204     Br2208   1.931       .  S
C2213      C2214   1.410       .  A
C2213      C2218   1.411       .  A
C2214      C2215   1.410   1_556  A
C2214     Br2226   1.929       .  S
C2215      C2216   1.410       .  A
C2215     Br2230   1.928       .  S
C2216      C2219   1.484       .  S
C2216      C2217   1.407       .  A
C2217      C2218   1.405   1_554  A
C2217     Br2225   1.931       .  S
C2218     Br2229   1.924       .  S
C2219      C2220   1.406       .  A
C2219      C2224   1.409       .  A
C2220      C2221   1.405       .  A
C2220     Br2231   1.933       .  S
C2221      C2222   1.416       .  A
C2221     Br2227   1.933       .  S
C2222      C2223   1.416       .  A
C2223      C2224   1.411       .  A
C2223     Br2232   1.931       .  S
C2224     Br2228   1.930       .  S
C2233      C2234   1.419       .  A
C2233      C2238   1.418       .  A
C2234      C2235   1.413       .  A
C2234     Br2246   1.927       .  S
C2235      C2236   1.408       .  A
C2235     Br2250   1.931       .  S
C2236      C2239   1.490   1_655  S
C2236      C2237   1.407       .  A
C2237      C2238   1.408       .  A
C2237     Br2245   1.932   1_556  S
C2238     Br2249   1.934   1_556  S
C2239      C2240   1.408       .  A
C2239      C2244   1.406       .  A
C2240      C2241   1.413       .  A
C2240     Br2251   1.929       .  S
C2241      C2242   1.416       .  A
C2241     Br2247   1.924   1_556  S
C2242      C2243   1.415       .  A
C2243      C2244   1.408       .  A
C2243     Br2252   1.923       .  S
C2244     Br2248   1.931       .  S
C2253      C2254   1.413       .  A
C2253      C2258   1.412       .  A
C2254      C2255   1.415       .  A
C2254     Br2266   1.927       .  S
C2255      C2256   1.411       .  A
C2255     Br2270   1.927       .  S
C2256      C2259   1.492       .  S
C2256      C2257   1.409       .  A
C2257      C2258   1.406       .  A
C2257     Br2265   1.932       .  S
C2258     Br2269   1.933       .  S
C2259      C2260   1.408       .  A
C2259      C2264   1.409       .  A
C2260      C2261   1.408       .  A
C2260     Br2271   1.931       .  S
C2261      C2262   1.415       .  A
C2261     Br2267   1.929       .  S
C2262      C2263   1.417       .  A
C2263      C2264   1.414       .  A
C2263     Br2272   1.927       .  S
C2264     Br2268   1.929       .  S
C2273      C2274   1.413       .  A
C2273      C2278   1.415       .  A
C2274      C2275   1.413       .  A
C2274     Br2286   1.928       .  S
C2275      C2276   1.410       .  A
C2275     Br2290   1.928       .  S
C2276      C2279   1.490       .  S
C2276      C2277   1.408       .  A
C2277      C2278   1.406       .  A
C2277     Br2285   1.932       .  S
C2278     Br2289   1.933       .  S
C2279      C2280   1.403       .  A
C2279      C2284   1.405       .  A
C2280      C2281   1.409       .  A
C2280     Br2291   1.936       .  S
C2281      C2282   1.431       .  A
C2281     Br2287   1.940       .  S
C2282      C2283   1.426       .  A
C2283      C2284   1.414       .  A
C2283     Br2292   1.934       .  S
C2284     Br2288   1.931       .  S
C2293      C2294   1.417       .  A
C2293      C2298   1.416       .  A
C2294      C2295   1.411       .  A
C2294     Br2306   1.933       .  S
C2295      C2296   1.410       .  A
C2295     Br2310   1.931       .  S
C2296      C2299   1.500   1_655  S
C2296      C2297   1.412       .  A
C2297      C2298   1.416       .  A
C2297     Br2305   1.929       .  S
C2298     Br2309   1.931       .  S
C2299      C2300   1.413       .  A
C2299      C2304   1.411       .  A
C2300      C2301   1.415       .  A
C2300     Br2311   1.929       .  S
C2301      C2302   1.412       .  A
C2301     Br2307   1.926       .  S
C2302      C2303   1.413       .  A
C2303      C2304   1.412       .  A
C2303     Br2312   1.931       .  S
C2304     Br2308   1.930       .  S
C2313      C2314   1.420       .  A
C2313      C2318   1.417       .  A
C2314      C2315   1.416       .  A
C2314     Br2326   1.933       .  S
C2315      C2316   1.411       .  A
C2315     Br2330   1.930       .  S
C2316      C2319   1.512       .  S
C2316      C2317   1.414       .  A
C2317      C2318   1.420       .  A
C2317     Br2325   1.929       .  S
C2318     Br2329   1.926       .  S
C2319      C2320   1.413       .  A
C2319      C2324   1.407       .  A
C2320      C2321   1.424       .  A
C2320     Br2331   1.929       .  S
C2321      C2322   1.423       .  A
C2321     Br2327   1.927       .  S
C2322      C2323   1.428       .  A
C2323      C2324   1.415       .  A
C2323     Br2332   1.936       .  S
C2324     Br2328   1.934       .  S
C2333      C2334   1.413       .  A
C2333      C2338   1.413       .  A
C2334      C2335   1.407       .  A
C2334     Br2346   1.931       .  S
C2335      C2336   1.409       .  A
C2335     Br2350   1.931       .  S
C2336      C2339   1.488       .  S
C2336      C2337   1.410       .  A
C2337      C2338   1.409       .  A
C2337     Br2345   1.930       .  S
C2338     Br2349   1.932       .  S
C2339      C2340   1.409       .  A
C2339      C2344   1.410       .  A
C2340      C2341   1.408       .  A
C2340     Br2351   1.931       .  S
C2341      C2342   1.415       .  A
C2341     Br2347   1.933       .  S
C2342      C2343   1.414       .  A
C2343      C2344   1.410       .  A
C2343     Br2352   1.929       .  S
C2344     Br2348   1.930       .  S
C2353      C2354   1.424       .  A
C2353      C2358   1.421       .  A
C2354      C2355   1.410       .  A
C2354     Br2366   1.936       .  S
C2355      C2356   1.406       .  A
C2355     Br2370   1.933       .  S
C2356      C2359   1.496       .  S
C2356      C2357   1.409       .  A
C2357      C2358   1.415       .  A
C2357     Br2365   1.930       .  S
C2358     Br2369   1.930       .  S
C2359      C2360   1.413       .  A
C2359      C2364   1.411       .  A
C2360      C2361   1.412       .  A
C2360     Br2371   1.929       .  S
C2361      C2362   1.408       .  A
C2361     Br2367   1.928       .  S
C2362      C2363   1.410       .  A
C2363      C2364   1.410       .  A
C2363     Br2372   1.930       .  S
C2364     Br2368   1.929       .  S
C2373      C2374   1.414       .  A
C2373      C2378   1.410       .  A
C2374      C2375   1.410       .  A
C2374     Br2386   1.929       .  S
C2375      C2376   1.409       .  A
C2375     Br2390   1.930       .  S
C2376      C2379   1.489       .  S
C2376      C2377   1.409       .  A
C2377      C2378   1.408       .  A
C2377     Br2385   1.930       .  S
C2378     Br2389   1.923       .  S
C2379      C2380   1.408       .  A
C2379      C2384   1.408       .  A
C2380      C2381   1.410       .  A
C2380     Br2391   1.930       .  S
C2381      C2382   1.414       .  A
C2381     Br2387   1.923       .  S
C2382      C2383   1.414       .  A
C2383      C2384   1.408       .  A
C2383     Br2392   1.927       .  S
C2384     Br2388   1.931       .  S
C2393      C2394   1.419       .  A
C2393      C2398   1.416       .  A
C2394      C2395   1.414       .  A
C2394     Br2406   1.934       .  S
C2395      C2396   1.411       .  A
C2395     Br2410   1.933       .  S
C2396      C2399   1.510       .  S
C2396      C2397   1.415       .  A
C2397      C2398   1.422       .  A
C2397     Br2405   1.927       .  S
C2398     Br2409   1.928       .  S
C2399      C2400   1.414       .  A
C2399      C2404   1.412       .  A
C2400      C2401   1.418       .  A
C2400     Br2411   1.928       .  S
C2401      C2402   1.414       .  A
C2401     Br2407   1.924       .  S
C2402      C2403   1.416       .  A
C2403      C2404   1.416       .  A
C2403     Br2412   1.931       .  S
C2404     Br2408   1.929       .  S
C2413      C2414   1.418       .  A
C2413      C2418   1.415       .  A
C2414      C2415   1.411       .  A
C2414     Br2426   1.933       .  S
C2415      C2416   1.408       .  A
C2415     Br2430   1.930       .  S
C2416      C2419   1.489   1_455  S
C2416      C2417   1.407       .  A
C2417      C2418   1.410       .  A
C2417     Br2425   1.932       .  S
C2418     Br2429   1.922       .  S
C2419      C2420   1.407       .  A
C2419      C2424   1.409       .  A
C2420      C2421   1.408       .  A
C2420     Br2431   1.931       .  S
C2421      C2422   1.418       .  A
C2421     Br2427   1.934       .  S
C2422      C2423   1.415       .  A
C2423      C2424   1.412       .  A
C2423     Br2432   1.926       .  S
C2424     Br2428   1.930       .  S
C2433      C2434   1.417       .  A
C2433      C2438   1.415       .  A
C2434      C2435   1.421       .  A
C2434     Br2446   1.921       .  S
C2435      C2436   1.414       .  A
C2435     Br2450   1.929       .  S
C2436      C2439   1.518   1_545  S
C2436      C2437   1.414       .  A
C2437      C2438   1.421       .  A
C2437     Br2445   1.927       .  S
C2438     Br2449   1.927       .  S
C2439      C2440   1.413       .  A
C2439      C2444   1.416       .  A
C2440      C2441   1.419       .  A
C2440     Br2451   1.929   1_565  S
C2441      C2442   1.417       .  A
C2441     Br2447   1.930       .  S
C2442      C2443   1.414       .  A
C2443      C2444   1.422       .  A
C2443     Br2452   1.927       .  S
C2444     Br2448   1.927       .  S
C2453      C2454   1.411       .  A
C2453      C2458   1.416       .  A
C2454      C2455   1.408       .  A
C2454     Br2466   1.929       .  S
C2455      C2456   1.408       .  A
C2455     Br2470   1.928       .  S
C2456      C2459   1.478       .  S
C2456      C2457   1.407       .  A
C2457      C2458   1.402       .  A
C2457     Br2465   1.934       .  S
C2458     Br2469   1.935   1_554  S
C2459      C2460   1.409       .  A
C2459      C2464   1.408       .  A
C2460      C2461   1.405       .  A
C2460     Br2471   1.929       .  S
C2461      C2462   1.408       .  A
C2461     Br2467   1.927       .  S
C2462      C2463   1.409       .  A
C2463      C2464   1.404       .  A
C2463     Br2472   1.926       .  S
C2464     Br2468   1.930       .  S
C2473      C2474   1.413       .  A
C2473      C2478   1.413   1_554  A
C2474      C2475   1.408       .  A
C2474     Br2486   1.932       .  S
C2475      C2476   1.409       .  A
C2475     Br2490   1.930       .  S
C2476      C2479   1.484   1_455  S
C2476      C2477   1.408   1_554  A
C2477      C2478   1.407       .  A
C2477     Br2485   1.930       .  S
C2478     Br2489   1.931       .  S
C2479      C2480   1.406   1_554  A
C2479      C2484   1.408       .  A
C2480      C2481   1.404       .  A
C2480     Br2491   1.933       .  S
C2481      C2482   1.418   1_556  A
C2481     Br2487   1.936       .  S
C2482      C2483   1.415       .  A
C2483      C2484   1.411       .  A
C2483     Br2492   1.929       .  S
C2484     Br2488   1.929       .  S
C2493      C2494   1.413       .  A
C2493      C2498   1.414       .  A
C2494      C2495   1.406       .  A
C2494     Br2506   1.932       .  S
C2495      C2496   1.408       .  A
C2495     Br2510   1.932       .  S
C2496      C2499   1.488       .  S
C2496      C2497   1.410       .  A
C2497      C2498   1.412       .  A
C2497     Br2505   1.928       .  S
C2498     Br2509   1.931       .  S
C2499      C2500   1.411       .  A
C2499      C2504   1.407       .  A
C2500      C2501   1.413       .  A
C2500     Br2511   1.928       .  S
C2501      C2502   1.413       .  A
C2501     Br2507   1.929       .  S
C2502      C2503   1.414       .  A
C2503      C2504   1.405       .  A
C2503     Br2512   1.934       .  S
C2504     Br2508   1.932       .  S
C2513      C2514   1.415       .  A
C2513      C2518   1.412       .  A
C2514      C2515   1.407       .  A
C2514     Br2526   1.933       .  S
C2515      C2516   1.407       .  A
C2515     Br2530   1.931       .  S
C2516      C2519   1.485       .  S
C2516      C2517   1.409       .  A
C2517      C2518   1.408       .  A
C2517     Br2525   1.930       .  S
C2518     Br2529   1.931       .  S
C2519      C2520   1.410       .  A
C2519      C2524   1.406       .  A
C2520      C2521   1.410       .  A
C2520     Br2531   1.930       .  S
C2521      C2522   1.413       .  A
C2521     Br2527   1.930       .  S
C2522      C2523   1.415       .  A
C2523      C2524   1.406       .  A
C2523     Br2532   1.933       .  S
C2524     Br2528   1.931       .  S
C2533      C2534   1.409       .  A
C2533      C2538   1.407   1_554  A
C2534      C2535   1.408       .  A
C2534     Br2546   1.929       .  S
C2535      C2536   1.409   1_554  A
C2535     Br2550   1.929   1_565  S
C2536      C2539   1.486   1_565  S
C2536      C2537   1.411       .  A
C2537      C2538   1.408       .  A
C2537     Br2545   1.928       .  S
C2538     Br2549   1.929       .  S
C2539      C2540   1.411   1_556  A
C2539      C2544   1.409       .  A
C2540      C2541   1.410   1_554  A
C2540     Br2551   1.929       .  S
C2541      C2542   1.408       .  A
C2541     Br2547   1.928   1_556  S
C2542      C2543   1.409       .  A
C2543      C2544   1.407       .  A
C2543     Br2552   1.929       .  S
C2544     Br2548   1.929       .  S
C2553      C2554   1.429       .  A
C2553      C2558   1.424       .  A
C2554      C2555   1.411       .  A
C2554     Br2566   1.934       .  S
C2555      C2556   1.406       .  A
C2555     Br2570   1.936       .  S
C2556      C2559   1.497       .  S
C2556      C2557   1.407       .  A
C2557      C2558   1.415       .  A
C2557     Br2565   1.931       .  S
C2558     Br2569   1.927       .  S
C2559      C2560   1.410       .  A
C2559      C2564   1.413       .  A
C2560      C2561   1.407       .  A
C2560     Br2571   1.933       .  S
C2561      C2562   1.415       .  A
C2561     Br2567   1.935       .  S
C2562      C2563   1.413       .  A
C2563      C2564   1.415       .  A
C2563     Br2572   1.926       .  S
C2564     Br2568   1.928       .  S
C2573      C2574   1.413       .  A
C2573      C2578   1.415       .  A
C2574      C2575   1.410       .  A
C2574     Br2586   1.927       .  S
C2575      C2576   1.409       .  A
C2575     Br2590   1.930       .  S
C2576      C2579   1.498       .  S
C2576      C2577   1.412       .  A
C2577      C2578   1.415       .  A
C2577     Br2585   1.929       .  S
C2578     Br2589   1.930       .  S
C2579      C2580   1.411       .  A
C2579      C2584   1.408       .  A
C2580      C2581   1.415       .  A
C2580     Br2591   1.929       .  S
C2581      C2582   1.416       .  A
C2581     Br2587   1.929       .  S
C2582      C2583   1.421       .  A
C2583      C2584   1.411       .  A
C2583     Br2592   1.935       .  S
C2584     Br2588   1.931       .  S
C2593      C2594   1.412       .  A
C2593      C2598   1.410       .  A
C2594      C2595   1.411       .  A
C2594     Br2606   1.930       .  S
C2595      C2596   1.409       .  A
C2595     Br2610   1.929   1_565  S
C2596      C2599   1.494   1_565  S
C2596      C2597   1.412       .  A
C2597      C2598   1.412       .  A
C2597     Br2605   1.929       .  S
C2598     Br2609   1.926       .  S
C2599      C2600   1.410       .  A
C2599      C2604   1.411       .  A
C2600      C2601   1.410       .  A
C2600     Br2611   1.929       .  S
C2601      C2602   1.412       .  A
C2601     Br2607   1.930       .  S
C2602      C2603   1.411       .  A
C2603      C2604   1.412       .  A
C2603     Br2612   1.929       .  S
C2604     Br2608   1.928       .  S
C2613      C2614   1.415       .  A
C2613      C2618   1.416       .  A
C2614      C2615   1.413       .  A
C2614     Br2626   1.928       .  S
C2615      C2616   1.410       .  A
C2615     Br2630   1.929       .  S
C2616      C2619   1.499       .  S
C2616      C2617   1.411       .  A
C2617      C2618   1.414       .  A
C2617     Br2625   1.929       .  S
C2618     Br2629   1.931       .  S
C2619      C2620   1.411       .  A
C2619      C2624   1.411       .  A
C2620      C2621   1.415       .  A
C2620     Br2631   1.928       .  S
C2621      C2622   1.416       .  A
C2621     Br2627   1.932       .  S
C2622      C2623   1.414       .  A
C2623      C2624   1.412       .  A
C2623     Br2632   1.932       .  S
C2624     Br2628   1.929       .  S
C2633      C2634   1.409       .  A
C2633      C2638   1.410       .  A
C2634      C2635   1.409       .  A
C2634     Br2646   1.931       .  S
C2635      C2636   1.412       .  A
C2635     Br2650   1.931       .  S
C2636      C2639   1.497       .  S
C2636      C2637   1.414       .  A
C2637      C2638   1.415       .  A
C2637     Br2645   1.928       .  S
C2638     Br2649   1.927       .  S
C2639      C2640   1.414       .  A
C2639      C2644   1.409       .  A
C2640      C2641   1.416       .  A
C2640     Br2651   1.928       .  S
C2641      C2642   1.410       .  A
C2641     Br2647   1.924       .  S
C2642      C2643   1.414       .  A
C2643      C2644   1.407       .  A
C2643     Br2652   1.933       .  S
C2644     Br2648   1.931       .  S
C2653      C2654   1.417       .  A
C2653      C2658   1.419       .  A
C2654      C2655   1.410       .  A
C2654     Br2666   1.933       .  S
C2655      C2656   1.408       .  A
C2655     Br2670   1.931       .  S
C2656      C2659   1.491       .  S
C2656      C2657   1.408       .  A
C2657      C2658   1.412       .  A
C2657     Br2665   1.930       .  S
C2658     Br2669   1.929       .  S
C2659      C2660   1.408       .  A
C2659      C2664   1.410       .  A
C2660      C2661   1.408       .  A
C2660     Br2671   1.932       .  S
C2661      C2662   1.412       .  A
C2661     Br2667   1.924       .  S
C2662      C2663   1.416       .  A
C2663      C2664   1.413       .  A
C2663     Br2672   1.930       .  S
C2664     Br2668   1.928       .  S
C2673      C2674   1.414       .  A
C2673      C2678   1.411       .  A
C2674      C2675   1.407       .  A
C2674     Br2686   1.932       .  S
C2675      C2676   1.408       .  A
C2675     Br2690   1.931       .  S
C2676      C2679   1.486       .  S
C2676      C2677   1.410       .  A
C2677      C2678   1.408       .  A
C2677     Br2685   1.930       .  S
C2678     Br2689   1.930       .  S
C2679      C2680   1.407       .  A
C2679      C2684   1.407       .  A
C2680      C2681   1.408       .  A
C2680     Br2691   1.932       .  S
C2681      C2682   1.418   1_556  A
C2681     Br2687   1.934   1_556  S
C2682      C2683   1.417   1_554  A
C2683      C2684   1.409       .  A
C2683     Br2692   1.923   1_556  S
C2684     Br2688   1.933       .  S
C2693      C2694   1.415       .  A
C2693      C2698   1.413       .  A
C2694      C2695   1.407       .  A
C2694     Br2706   1.933       .  S
C2695      C2696   1.408       .  A
C2695     Br2710   1.931       .  S
C2696      C2699   1.487       .  S
C2696      C2697   1.410       .  A
C2697      C2698   1.410       .  A
C2697     Br2705   1.930       .  S
C2698     Br2709   1.931       .  S
C2699      C2700   1.411       .  A
C2699      C2704   1.408       .  A
C2700      C2701   1.411       .  A
C2700     Br2711   1.929       .  S
C2701      C2702   1.411       .  A
C2701     Br2707   1.930       .  S
C2702      C2703   1.412       .  A
C2703      C2704   1.406       .  A
C2703     Br2712   1.932       .  S
C2704     Br2708   1.930       .  S
C2713      C2714   1.410       .  A
C2713      C2718   1.409       .  A
C2714      C2715   1.409       .  A
C2714     Br2726   1.929       .  S
C2715      C2716   1.409       .  A
C2715     Br2730   1.929       .  S
C2716      C2719   1.487   1_545  S
C2716      C2717   1.409       .  A
C2717      C2718   1.408       .  A
C2717     Br2725   1.930       .  S
C2718     Br2729   1.925       .  S
C2719      C2720   1.410       .  A
C2719      C2724   1.408       .  A
C2720      C2721   1.410       .  A
C2720     Br2731   1.929       .  S
C2721      C2722   1.411       .  A
C2721     Br2727   1.930       .  S
C2722      C2723   1.412       .  A
C2723      C2724   1.408       .  A
C2723     Br2732   1.931       .  S
C2724     Br2728   1.930   1_565  S
C2733      C2734   1.418       .  A
C2733      C2738   1.420       .  A
C2734      C2735   1.413       .  A
C2734     Br2746   1.923       .  S
C2735      C2736   1.408       .  A
C2735     Br2750   1.931       .  S
C2736      C2739   1.496       .  S
C2736      C2737   1.408       .  A
C2737      C2738   1.412       .  A
C2737     Br2745   1.931       .  S
C2738     Br2749   1.933       .  S
C2739      C2740   1.410       .  A
C2739      C2744   1.411       .  A
C2740      C2741   1.412       .  A
C2740     Br2751   1.930       .  S
C2741      C2742   1.415       .  A
C2741     Br2747   1.931       .  S
C2742      C2743   1.412       .  A
C2743      C2744   1.411       .  A
C2743     Br2752   1.930       .  S
C2744     Br2748   1.930       .  S
