geometry optimzed in LAMMPS
_audit_creation_date              2020-11-30 
_audit_creation_method            'lammps2cif' 
_symmetry_space_group_name_H-M    'P1' 
_symmetry_Int_Tables_number       1 
_symmetry_cell_setting            triclinic 
loop_ 
_symmetry_equiv_pos_as_xyz 
  x,y,z 
_cell_length_a                    45.80143229 
_cell_length_b                    45.95449972809905 
_cell_length_c                    46.010558380076624 
_cell_angle_alpha                 90.15819808961557 
_cell_angle_beta                  89.92626859079328 
_cell_angle_gamma                 90.26392092137073 
loop_ 
_atom_site_label 
_atom_site_type_symbol 
_atom_site_fract_x 
_atom_site_fract_y 
_atom_site_fract_z 
_atom_site_charge 
O1          O  0.47121724  0.63918676  0.02561516    -0.72400
O2          O  0.53289014  0.69485542  0.02734543    -0.72600
O3          O  0.47322453  0.69678649  0.02701982    -0.72500
O4          O  0.53024318  0.63735466  0.02610776    -0.72500
O5          O  0.53056100  0.63808325  0.97888910    -0.72400
O6          O  0.47342284  0.69758618  0.97975447    -0.72500
O7          O  0.53309504  0.69578329  0.98008569    -0.72400
O8          O  0.47194868  0.63994698  0.97842072    -0.72600
V9          V  0.50190348  0.66723454  0.02561401     1.35200
V10         V  0.50227481  0.66805443  0.98022091     1.35200
C11         C  0.46083519  0.63036014  0.00166513     0.76800
C12         C  0.54476518  0.70297061  0.00391081     0.76900
C13         C  0.46198485  0.70531552  0.00352720     0.76800
C14         C  0.54047075  0.62794185  0.00238179     0.76700
C15         C  0.78351020  0.55706142  0.00026802     0.85900
C16         C  0.80419234  0.55284410  0.02630272    -0.54400
C17         C  0.82114635  0.52855807  0.02424315     0.08800
C18         C  0.81627937  0.51057558  0.99654459     0.19800
C19         C  0.80391474  0.55663754  0.97367273    -0.55100
C20         C  0.82099872  0.53224169  0.97136791     0.08900
C21         C  0.76643608  0.52840915  0.99847232    -0.54600
C22         C  0.78348569  0.50428944  0.99670103     0.09500
H23         H  0.80618489  0.56746989  0.04466440     0.14000
H24         H  0.82954897  0.49047029  0.99548167    -0.00300
H25         H  0.80482626  0.57450659  0.95833333     0.14300
H26         H  0.74272903  0.52723067  0.99924207     0.14100
C27         C  0.62716538  0.71492784  0.00112800     0.85900
C28         C  0.62383160  0.73546533  0.97497267    -0.54400
C29         C  0.59956473  0.75281247  0.97584323     0.08800
C30         C  0.58109534  0.74843118  0.00364046     0.19800
C31         C  0.62688305  0.73564508  0.02731558    -0.55100
C32         C  0.60274378  0.75321781  0.02914092     0.08900
C33         C  0.59807973  0.69845003  0.00278161    -0.54600
C34         C  0.57413299  0.71583089  0.00408515     0.09500
H35         H  0.63983556  0.73741752  0.95785783     0.14000
H36         H  0.56091169  0.76151695  0.00454267    -0.00300
H37         H  0.64487521  0.73642177  0.04257614     0.14300
H38         H  0.59652206  0.67483372  0.00249109     0.14100
O39         O  0.70411361  0.46186053  0.02316431    -0.72400
O40         O  0.76427209  0.40536680  0.02058896    -0.72600
O41         O  0.76198970  0.46462855  0.02119213    -0.72500
O42         O  0.70630504  0.40333646  0.02235287    -0.72500
O43         O  0.70308791  0.40571502  0.97531986    -0.72400
O44         O  0.76227885  0.46340086  0.97390990    -0.72500
O45         O  0.76104092  0.40431119  0.97342821    -0.72400
O46         O  0.70456169  0.46412520  0.97600919    -0.72600
V47         V  0.73434583  0.43382212  0.02094203     1.35200
V48         V  0.73294754  0.43433008  0.97558067     1.35200
C49         C  0.69470885  0.47322040  0.00001804     0.76800
C50         C  0.77088064  0.39360479  0.99665453     0.76900
C51         C  0.77011986  0.47544633  0.99729347     0.76800
C52         C  0.69496453  0.39429744  0.99895462     0.76700
C53         C  0.62062331  0.15692026  0.00179661     0.85900
C54         C  0.61897387  0.13657937  0.02829188    -0.54400
C55         C  0.59474738  0.11891385  0.02912338     0.08800
C56         C  0.57457770  0.12286100  0.00251080     0.19800
C57         C  0.61871407  0.13604043  0.97579767    -0.55100
C58         C  0.59463619  0.11814487  0.97583930     0.08900
C59         C  0.59153382  0.17304872  0.00193685    -0.54600
C60         C  0.56763382  0.15541971  0.00219096     0.09500
H61         H  0.63608208  0.13489908  0.04426916     0.14000
H62         H  0.55448387  0.10937346  0.00261920    -0.00300
H63         H  0.63560416  0.13518685  0.95926117     0.14300
H64         H  0.58993522  0.19665039  0.00160425     0.14100
C65         C  0.78060284  0.31195817  0.99056895     0.85900
C66         C  0.79961099  0.31625167  0.96310746    -0.54400
C67         C  0.81825761  0.33962066  0.96485584     0.08800
C68         C  0.81597232  0.35687523  0.99346826     0.19800
C69         C  0.80293946  0.31037775  0.01540943    -0.55100
C70         C  0.82125837  0.33387060  0.01702410     0.08900
C71         C  0.76528358  0.34112994  0.99463478    -0.54600
C72         C  0.78351873  0.36449384  0.99603001     0.09500
H73         H  0.79991429  0.30167183  0.94458746     0.14000
H74         H  0.83085741  0.37599767  0.99469084    -0.00300
H75         H  0.80421094  0.29219666  0.03039059     0.14300
H76         H  0.74165292  0.34323715  0.99552438     0.14100
O77         O  0.46627202  0.23121364  0.97637603    -0.72400
O78         O  0.52740859  0.17580746  0.97778565    -0.72600
O79         O  0.46808903  0.17355344  0.97750690    -0.72500
O80         O  0.52526323  0.23337187  0.97660309    -0.72500
O81         O  0.52535707  0.23412701  0.02382685    -0.72400
O82         O  0.46716241  0.17527480  0.02475883    -0.72500
O83         O  0.52661343  0.17637371  0.02506465    -0.72400
O84         O  0.46678093  0.23305468  0.02356218    -0.72600
V85         V  0.49675341  0.20336967  0.97798525     1.35200
V86         V  0.49648453  0.20448674  0.02338613     1.35200
C87         C  0.45597258  0.24142927  0.99976879     0.76800
C88         C  0.53851311  0.16823382  0.00167349     0.76900
C89         C  0.45644591  0.16602116  0.00120276     0.76800
C90         C  0.53549361  0.24349976  0.00006164     0.76700
C91         C  0.21977987  0.31314647  0.00447472     0.85900
C92         C  0.19936553  0.31505337  0.03095275    -0.54400
C93         C  0.18088807  0.33839224  0.03103058     0.08800
C94         C  0.18399512  0.35752947  0.00359723     0.19800
C95         C  0.19878658  0.31305428  0.97855304    -0.55100
C96         C  0.18013836  0.33630757  0.97775120     0.08900
C97         C  0.23491787  0.34293832  0.00322381    -0.54600
C98         C  0.21629708  0.36601360  0.00252974     0.09500
H99         H  0.19810224  0.29860177  0.04753301     0.14000
H100        H  0.16967468  0.37686956  0.00300607    -0.00300
H101        H  0.19877158  0.29583782  0.96235655     0.14300
H102        H  0.25850454  0.34555246  0.00261480     0.14100
C103        C  0.37462110  0.15374085  0.99870084     0.85900
C104        C  0.37754206  0.13334723  0.97233350    -0.54400
C105        C  0.40157053  0.11574116  0.97308900     0.08800
C106        C  0.42054209  0.12004863  0.00048125     0.19800
C107        C  0.37508457  0.13291786  0.02477122    -0.55100
C108        C  0.39927978  0.11529930  0.02632082     0.08900
C109        C  0.40363700  0.17006209  0.00015176    -0.54600
C110        C  0.42748118  0.15267264  0.00103061     0.09500
H111        H  0.36140061  0.13148819  0.95527454     0.14000
H112        H  0.44064102  0.10679438  0.00058751    -0.00300
H113        H  0.35720951  0.13234404  0.04017730     0.14300
H114        H  0.40523589  0.19368641  0.00014243     0.14100
C115        C  0.21897659  0.56135233  0.99635647     0.85900
C116        C  0.19818016  0.55947029  0.97012981    -0.54400
C117        C  0.17986379  0.53580521  0.97025697     0.08800
C118        C  0.18373075  0.51622442  0.99715457     0.19800
C119        C  0.19841149  0.56048204  0.02273575    -0.55100
C120        C  0.17980703  0.53695223  0.02340703     0.08900
C121        C  0.23446537  0.53188513  0.99679367    -0.54600
C122        C  0.21621983  0.50839783  0.99738976     0.09500
H123        H  0.19676154  0.57586767  0.95344463     0.14000
H124        H  0.16938771  0.49677495  0.99708028    -0.00300
H125        H  0.19926328  0.57692606  0.03967334     0.14300
H126        H  0.25809739  0.52976427  0.99686748     0.14100
C127        C  0.37968289  0.71648496  0.00595206     0.85900
C128        C  0.38272930  0.73604735  0.03313365    -0.54400
C129        C  0.40681663  0.75388338  0.03297642     0.08800
C130        C  0.42579126  0.75064635  0.00546728     0.19800
C131        C  0.38039397  0.73814299  0.98058495    -0.55100
C132        C  0.40445531  0.75583734  0.98030657     0.08900
C133        C  0.40885244  0.70043111  0.00415163    -0.54600
C134        C  0.43280919  0.71813845  0.00386510     0.09500
H135        H  0.36684367  0.73719127  0.05046005     0.14000
H136        H  0.44546947  0.76483567  0.00498276    -0.00300
H137        H  0.36311819  0.73972727  0.96451869     0.14300
H138        H  0.41044902  0.67684233  0.00346277     0.14100
O139        O  0.29250160  0.46687518  0.97402205    -0.72400
O140        O  0.23595018  0.40597700  0.97643506    -0.72600
O141        O  0.23452995  0.46572370  0.97507097    -0.72500
O142        O  0.29360821  0.40810346  0.97486138    -0.72500
O143        O  0.29239807  0.40690905  0.02203283    -0.72400
O144        O  0.23765675  0.46874377  0.02213739    -0.72500
O145        O  0.23483497  0.40917555  0.02358528    -0.72400
O146        O  0.29540493  0.46536906  0.02110598    -0.72600
V147        V  0.26392636  0.43671005  0.97596764     1.35200
V148        V  0.26483414  0.43759098  0.02130743     1.35200
C149        C  0.30378057  0.47629956  0.99734376     0.76800
C150        C  0.22782085  0.39578325  0.00065308     0.76900
C151        C  0.22838707  0.47890988  0.99838885     0.76800
C152        C  0.30224597  0.39688348  0.99835878     0.76700
O153        O  0.47003382  0.90786607  0.70825765    -0.72400
O154        O  0.52698074  0.91200972  0.76778361    -0.72600
O155        O  0.46745129  0.90929481  0.76594750    -0.72500
O156        O  0.52857090  0.91068625  0.70999449    -0.72500
O157        O  0.52556067  0.95780450  0.70803328    -0.72400
O158        O  0.46673428  0.95661051  0.76620843    -0.72500
O159        O  0.52637409  0.95927622  0.76551684    -0.72400
O160        O  0.46655094  0.95502520  0.70869725    -0.72600
V161        V  0.49821804  0.91088121  0.73820880     1.35200
V162        V  0.49633348  0.95627262  0.73729936     1.35200
C163        C  0.45812494  0.93069450  0.69884275     0.76800
C164        C  0.53810712  0.93625192  0.77466013     0.76900
C165        C  0.45545387  0.93271315  0.77389932     0.76800
C166        C  0.53758559  0.93454465  0.69958612     0.76700
C167        C  0.78128135  0.94409167  0.63074547     0.85900
C168        C  0.80330596  0.91886836  0.62962669    -0.54400
C169        C  0.82200789  0.91973614  0.60639627     0.08800
C170        C  0.81693317  0.94588627  0.58613762     0.19800
C171        C  0.80007872  0.97172750  0.62938556    -0.55100
C172        C  0.81922374  0.97282624  0.60640073     0.08900
C173        C  0.76612235  0.94249001  0.60116019    -0.54600
C174        C  0.78448651  0.94372145  0.57794659     0.09500
H175        H  0.80342870  0.90088956  0.64476651     0.14000
H176        H  0.83177579  0.94618431  0.56711958    -0.00300
H177        H  0.79810338  0.98883656  0.64553804     0.14300
H178        H  0.74259600  0.94050504  0.59865420     0.14100
C179        C  0.62033471  0.93408539  0.78513000     0.85900
C180        C  0.62055015  0.95888288  0.80754748    -0.54400
C181        C  0.59681857  0.95934218  0.82571459     0.08800
C182        C  0.57476005  0.93462965  0.81968358     0.19800
C183        C  0.61676739  0.90631661  0.80371659    -0.55100
C184        C  0.59300886  0.90678713  0.82178406     0.08900
C185        C  0.59110485  0.93708195  0.76942175    -0.54600
C186        C  0.56737283  0.93723083  0.78731155     0.09500
H187        H  0.63797559  0.97494207  0.80849638     0.14000
H188        H  0.55529726  0.93441898  0.83407626    -0.00300
H189        H  0.63195606  0.88835413  0.80407423     0.14300
H190        H  0.58926236  0.93802344  0.74588491     0.14100
O191        O  0.70569427  0.96277898  0.47773436    -0.72400
O192        O  0.76327857  0.96583903  0.53688572    -0.72600
O193        O  0.76364109  0.96411495  0.47761319    -0.72500
O194        O  0.70507780  0.96423817  0.53631668    -0.72500
O195        O  0.70669258  0.91704438  0.53778897    -0.72400
O196        O  0.76425201  0.91681648  0.47856355    -0.72500
O197        O  0.76461018  0.91854924  0.53771130    -0.72400
O198        O  0.70608520  0.91556064  0.47921771    -0.72600
V199        V  0.73464612  0.96333822  0.50718714     1.35200
V200        V  0.73558144  0.91793017  0.50828747     1.35200
C201        C  0.69617614  0.93871315  0.46821061     0.76800
C202        C  0.77209007  0.94269855  0.54864113     0.76900
C203        C  0.77185394  0.94030908  0.46654971     0.76800
C204        C  0.69618104  0.94058789  0.54733374     0.76700
C205        C  0.21774503  0.92472862  0.62343606     0.85900
C206        C  0.19702383  0.95085738  0.62314134    -0.54400
C207        C  0.17965657  0.95263381  0.59897431     0.08800
C208        C  0.18425961  0.92716758  0.57738837     0.19800
C209        C  0.19710965  0.89847237  0.61999227    -0.55100
C210        C  0.17968525  0.89931430  0.59575652     0.08900
C211        C  0.23437086  0.92645072  0.59471291    -0.54600
C212        C  0.21707607  0.92766049  0.57075310     0.09500
H213        H  0.19599839  0.96633714  0.64096309     0.14000
H214        H  0.17093292  0.92840446  0.55735898    -0.00300
H215        H  0.19516750  0.88150649  0.63612542     0.14300
H216        H  0.25808008  0.92635631  0.59339732     0.14100
C217        C  0.37275519  0.93151983  0.78263011     0.85900
C218        C  0.37391542  0.90501621  0.80281731    -0.54400
C219        C  0.39712756  0.90502533  0.82155736     0.08800
C220        C  0.41742043  0.93162689  0.81823249     0.19800
C221        C  0.37376888  0.95783014  0.80350384    -0.55100
C222        C  0.39687538  0.95782547  0.82240869     0.08900
C223        C  0.40253047  0.93219717  0.76753267    -0.54600
C224        C  0.42579979  0.93216094  0.78593043     0.09500
H225        H  0.35746004  0.88792858  0.80249416     0.14000
H226        H  0.43640702  0.93141018  0.83313946    -0.00300
H227        H  0.35811994  0.97530083  0.80352643     0.14300
H228        H  0.40503310  0.93260073  0.74403919     0.14100
O229        O  0.29647053  0.95149651  0.53201312    -0.72400
O230        O  0.24067836  0.95213119  0.47111361    -0.72600
O231        O  0.23843612  0.95162223  0.53046846    -0.72500
O232        O  0.29878452  0.95209834  0.47385803    -0.72500
O233        O  0.29737556  0.90487906  0.47200002    -0.72400
O234        O  0.23930145  0.90430465  0.53083408    -0.72500
O235        O  0.23925790  0.90481962  0.47172988    -0.72400
O236        O  0.29723532  0.90426884  0.53037423    -0.72600
V237        V  0.26834276  0.95093924  0.50182051     1.35200
V238        V  0.26809368  0.90549669  0.50122621     1.35200
C239        C  0.30648919  0.92774467  0.54145581     0.76800
C240        C  0.23196239  0.92847734  0.45999152     0.76900
C241        C  0.23056852  0.92788278  0.54189625     0.76800
C242        C  0.30830350  0.92859096  0.46320064     0.76700
C243        C  0.38049056  0.93888665  0.22368683     0.85900
C244        C  0.38314575  0.96541648  0.20342662    -0.54400
C245        C  0.40682245  0.96462790  0.18527864     0.08800
C246        C  0.42582446  0.93730275  0.18891850     0.19800
C247        C  0.38077806  0.91270309  0.20293036    -0.55100
C248        C  0.40433519  0.91158582  0.18452662     0.08900
C249        C  0.40979649  0.93764410  0.23938643    -0.54600
C250        C  0.43341806  0.93680615  0.22145998     0.09500
H251        H  0.36743157  0.98286742  0.20220070     0.14000
H252        H  0.44526695  0.93722093  0.17454691    -0.00300
H253        H  0.36377233  0.89621928  0.20348028     0.14300
H254        H  0.41174143  0.93761529  0.26294308     0.14100
C255        C  0.22141348  0.92493581  0.37813228     0.85900
C256        C  0.20275714  0.89708056  0.38134937    -0.54400
C257        C  0.18439314  0.89721996  0.40493282     0.08800
C258        C  0.18667049  0.92521264  0.42344649     0.19800
C259        C  0.19884307  0.94948918  0.37793736    -0.55100
C260        C  0.18078539  0.94970852  0.40156345     0.08900
C261        C  0.23715448  0.92791256  0.40729293    -0.54600
C262        C  0.21919796  0.92810864  0.43085492     0.09500
H263        H  0.20227390  0.87956630  0.36564301     0.14000
H264        H  0.17224503  0.92562301  0.44284631    -0.00300
H265        H  0.19706328  0.96519416  0.36042624     0.14300
H266        H  0.26079158  0.92920837  0.40919954     0.14100
C267        C  0.62605843  0.93688681  0.22008058     0.85900
C268        C  0.62280876  0.90893847  0.20196335    -0.54400
C269        C  0.59899050  0.90862633  0.18408625     0.08800
C270        C  0.58021261  0.93625180  0.18609269     0.19800
C271        C  0.62572992  0.96155633  0.19748354    -0.55100
C272        C  0.60182680  0.96126463  0.17954594     0.08900
C273        C  0.59701891  0.94010103  0.23603901    -0.54600
C274        C  0.57315612  0.93949218  0.21858909     0.09500
H275        H  0.63855383  0.89134497  0.20256685     0.14000
H276        H  0.56060273  0.93550874  0.17196562    -0.00300
H277        H  0.64226808  0.97829172  0.19586552     0.14300
H278        H  0.59535956  0.94169675  0.25957813     0.14100
C279        C  0.77477394  0.93851183  0.38417299     0.85900
C280        C  0.79576099  0.96468798  0.38329475    -0.54400
C281        C  0.81663814  0.96469614  0.40467233     0.08800
C282        C  0.81394928  0.93860495  0.42562646     0.19800
C283        C  0.79465648  0.91183713  0.38404334    -0.55100
C284        C  0.81546338  0.91184005  0.40537625     0.08900
C285        C  0.76199314  0.93970047  0.41490462    -0.54600
C286        C  0.78223185  0.93960702  0.43646518     0.09500
H287        H  0.79408659  0.98164492  0.36702951     0.14000
H288        H  0.83034062  0.93839646  0.44329731    -0.00300
H289        H  0.79254364  0.89462323  0.36796072     0.14300
H290        H  0.73897034  0.94144433  0.41991505     0.14100
O291        O  0.53604152  0.91277413  0.29694821    -0.72400
O292        O  0.47379479  0.91280343  0.24234921    -0.72600
O293        O  0.53298735  0.91468069  0.23897801    -0.72500
O294        O  0.47741458  0.91087291  0.30014956    -0.72500
O295        O  0.47421367  0.95801090  0.29990093    -0.72400
O296        O  0.53376386  0.96186937  0.24275928    -0.72500
O297        O  0.47445108  0.96013056  0.24217511    -0.72400
O298        O  0.53276645  0.95975919  0.30070149    -0.72600
V299        V  0.50504925  0.91367524  0.26944621     1.35200
V300        V  0.50385567  0.95904377  0.27115208     1.35200
C301        C  0.54454546  0.93625995  0.30868287     0.76800
C302        C  0.46267650  0.93652522  0.23421830     0.76900
C303        C  0.54435694  0.93881900  0.23223084     0.76800
C304        C  0.46585845  0.93381361  0.31001427     0.76700
O305        O  0.02987327  0.40487476  0.69894949    -0.72400
O306        O  0.02806678  0.46554069  0.75525709    -0.72600
O307        O  0.02953179  0.40626343  0.75687325    -0.72500
O308        O  0.02825079  0.46350473  0.69730161    -0.72500
O309        O  0.98085416  0.46287443  0.69832855    -0.72400
O310        O  0.98208869  0.40416532  0.75587020    -0.72500
O311        O  0.98063863  0.46315395  0.75610228    -0.72400
O312        O  0.98247320  0.40448245  0.69789947    -0.72600
V313        V  0.02804033  0.43502221  0.72729026     1.35200
V314        V  0.98246492  0.43366608  0.72722208     1.35200
C315        C  0.00644657  0.39450625  0.68861080     0.76800
C316        C  0.00395917  0.47568193  0.76386746     0.76900
C317        C  0.00601934  0.39420406  0.76489595     0.76800
C318        C  0.00423085  0.47324891  0.68795523     0.76700
C319        C  0.99088965  0.71402520  0.61773414     0.85900
C320        C  0.01878078  0.73237163  0.61482203    -0.54400
C321        C  0.01865777  0.75105965  0.59183096     0.08800
C322        C  0.99083355  0.74952299  0.57322176     0.19800
C323        C  0.96589573  0.73648022  0.61820241    -0.55100
C324        C  0.96557949  0.75506364  0.59483680     0.08900
C325        C  0.98739223  0.69892618  0.58824053    -0.54600
C326        C  0.98790740  0.71725224  0.56506391     0.09500
H327        H  0.03684675  0.73112389  0.63004072     0.14000
H328        H  0.99137133  0.76399896  0.55398001    -0.00300
H329        H  0.94981760  0.73781413  0.63532340     0.14300
H330        H  0.98591286  0.67543405  0.58571628     0.14100
C331        C  0.99763897  0.55727961  0.77497050     0.85900
C332        C  0.97047494  0.55301652  0.79441529    -0.54400
C333        C  0.97204021  0.52949501  0.81239271     0.08800
C334        C  0.00045073  0.51209978  0.80946101     0.19800
C335        C  0.02312295  0.55843044  0.79669460    -0.55100
C336        C  0.02475319  0.53490369  0.81503244     0.08900
C337        C  0.00127812  0.52830634  0.75915737    -0.54600
C338        C  0.00268290  0.50475221  0.77690964     0.09500
H339        H  0.95231647  0.56796173  0.79575106     0.14000
H340        H  0.00083490  0.49271488  0.82372921    -0.00300
H341        H  0.03852913  0.57640800  0.79708144     0.14300
H342        H  0.00208634  0.52648260  0.73559646     0.14100
O343        O  0.97132691  0.63800386  0.46486486    -0.72400
O344        O  0.96628202  0.69459686  0.52438884    -0.72600
O345        O  0.96766732  0.69536448  0.46496891    -0.72500
O346        O  0.97041903  0.63684130  0.52320679    -0.72500
O347        O  0.01760145  0.64140898  0.52508181    -0.72400
O348        O  0.01509513  0.69786896  0.46518614    -0.72500
O349        O  0.01357922  0.69908935  0.52440005    -0.72400
O350        O  0.01868484  0.64013836  0.46653259    -0.72600
V351        V  0.96983133  0.66649964  0.49441987     1.35200
V352        V  0.01531765  0.66975530  0.49529080     1.35200
C353        C  0.99572662  0.62950757  0.45541189     0.76800
C354        C  0.98914976  0.70488557  0.53577456     0.76900
C355        C  0.99110304  0.70449458  0.45356098     0.76800
C356        C  0.99453158  0.62932877  0.53424119     0.76700
C357        C  0.00105460  0.55640297  0.21582254     0.85900
C358        C  0.02879878  0.55239581  0.19735051    -0.54400
C359        C  0.02852884  0.52808956  0.18010029     0.08800
C360        C  0.00032849  0.50985472  0.18283855     0.19800
C361        C  0.97635180  0.55592797  0.19335116    -0.55100
C362        C  0.97531645  0.53133299  0.17639866     0.08900
C363        C  0.99766301  0.52778015  0.23249292    -0.54600
C364        C  0.99736581  0.50358347  0.21531998     0.09500
H365        H  0.04647926  0.56803800  0.19626819     0.14000
H366        H  0.00032729  0.48963014  0.16967770    -0.00300
H367        H  0.96105780  0.57375305  0.19134967     0.14300
H368        H  0.99619063  0.52670287  0.25605264     0.14100
C369        C  0.99098204  0.71440673  0.37140965     0.85900
C370        C  0.96604349  0.73676862  0.37277220    -0.54400
C371        C  0.96720837  0.75491893  0.39645528     0.08800
C372        C  0.99349687  0.74929303  0.41649521     0.19800
C373        C  0.01880449  0.73302219  0.37285939    -0.55100
C374        C  0.02032375  0.75156588  0.39617404     0.08900
C375        C  0.98952071  0.69887633  0.40075424    -0.54600
C376        C  0.99088025  0.71692152  0.42424138     0.09500
H377        H  0.94920739  0.73890525  0.35649740     0.14000
H378        H  0.99417084  0.76361758  0.43589154    -0.00300
H379        H  0.03590920  0.73122808  0.35662901     0.14300
H380        H  0.98798509  0.67535290  0.40280782     0.14100
O381        O  0.97338926  0.40270053  0.29271214    -0.72400
O382        O  0.97267557  0.46422115  0.23778546    -0.72600
O383        O  0.97180424  0.40473323  0.23506640    -0.72500
O384        O  0.97397464  0.46112561  0.29519982    -0.72500
O385        O  0.02126956  0.46311046  0.29197548    -0.72400
O386        O  0.01922514  0.40256806  0.23575872    -0.72500
O387        O  0.01998609  0.46184890  0.23444845    -0.72400
O388        O  0.02077385  0.40455341  0.29354046    -0.72600
V389        V  0.97385161  0.43319308  0.26494013     1.35200
V390        V  0.01941348  0.43298667  0.26375309     1.35200
C391        C  0.99725820  0.39341078  0.30280530     0.76800
C392        C  0.99644914  0.47459660  0.22835400     0.76900
C393        C  0.99505118  0.39218902  0.22741631     0.76800
C394        C  0.99787134  0.47237999  0.30319768     0.76700
C395        C  0.01229166  0.16014358  0.61906881     0.85900
C396        C  0.98299863  0.14359511  0.61865510    -0.54400
C397        C  0.98058908  0.12298385  0.59715784     0.08800
C398        C  0.00789828  0.12131344  0.57749140     0.19800
C399        C  0.03546694  0.13625382  0.62038212    -0.55100
C400        C  0.03331777  0.11571611  0.59878503     0.08900
C401        C  0.01493513  0.17261200  0.58831860    -0.54600
C402        C  0.01271560  0.15250430  0.56676795     0.09500
H403        H  0.96620487  0.14726281  0.63488768     0.00800
H404        H  0.00604126  0.10549183  0.55939011    -0.00300
H405        H  0.05229727  0.13600550  0.63696917     0.14300
H406        H  0.01645694  0.19553462  0.58313132     0.14100
C407        C  0.00743751  0.31287051  0.77915037     0.85900
C408        C  0.03309418  0.31583063  0.80034922    -0.54400
C409        C  0.03195110  0.34015405  0.81742142     0.08800
C410        C  0.00535867  0.35968484  0.81173510     0.19800
C411        C  0.98018739  0.31469562  0.79880566    -0.55100
C412        C  0.97876271  0.33929890  0.81570727     0.08900
C413        C  0.00735774  0.34139043  0.76214869    -0.54600
C414        C  0.00655017  0.36572451  0.77895779     0.09500
H415        H  0.05035198  0.29979449  0.80213133     0.14000
H416        H  0.00497155  0.37982581  0.82506736    -0.00300
H417        H  0.96391873  0.29772673  0.80042023     0.14300
H418        H  0.00795495  0.34229644  0.73853398     0.14100
C419        C  0.00599202  0.15052492  0.37321018     0.85900
C420        C  0.03170037  0.12902520  0.37327771    -0.54400
C421        C  0.03176221  0.11019233  0.39638755     0.08800
C422        C  0.00618904  0.11516369  0.41777468     0.19800
C423        C  0.97886472  0.13088919  0.37525727    -0.55100
C424        C  0.97874107  0.11250737  0.39860408     0.08900
C425        C  0.00784629  0.16577775  0.40261442    -0.54600
C426        C  0.00787720  0.14759323  0.42583021     0.09500
H427        H  0.04819030  0.12812093  0.35650664     0.14000
H428        H  0.00583564  0.10060289  0.43694788    -0.00300
H429        H  0.96146132  0.13130420  0.35925769     0.14300
H430        H  0.00852920  0.18933253  0.40494002     0.14100
C431        C  0.99390150  0.30994125  0.22042384     0.85900
C432        C  0.96864388  0.31005211  0.19840272    -0.54400
C433        C  0.96966705  0.33247363  0.17884944     0.08800
C434        C  0.99569728  0.35339697  0.18369393     0.19800
C435        C  0.02141547  0.31065828  0.20130600    -0.55100
C436        C  0.02250695  0.33332155  0.18206539     0.08900
C437        C  0.99279660  0.33988300  0.23471903    -0.54600
C438        C  0.99379228  0.36255235  0.21577460     0.09500
H439        H  0.95177392  0.29359617  0.19743781     0.14000
H440        H  0.99651753  0.37192410  0.16834657    -0.00300
H441        H  0.03857304  0.29454027  0.20306015     0.14300
H442        H  0.99193562  0.34294111  0.25814724     0.14100
O443        O  0.98358184  0.22579599  0.52581685    -0.72400
O444        O  0.98398327  0.16819921  0.46635903    -0.72600
O445        O  0.98676848  0.16790776  0.52542133    -0.72500
O446        O  0.98068434  0.22616812  0.46732878    -0.72500
O447        O  0.02792501  0.22685495  0.46318449    -0.72400
O448        O  0.03400758  0.17294782  0.52494220    -0.72500
O449        O  0.03146046  0.16928504  0.46595380    -0.72400
O450        O  0.03056870  0.23052342  0.52140789    -0.72600
V451        V  0.98463775  0.19686713  0.49616938     1.35200
V452        V  0.03008042  0.19963331  0.49392328     1.35200
C453        C  0.00704978  0.23821556  0.53356473     0.76800
C454        C  0.00780997  0.16032711  0.45499715     0.76900
C455        C  0.01128528  0.16280267  0.53679019     0.76800
C456        C  0.00332698  0.23606234  0.45497770     0.76700
C457        C  0.02101689  0.26094259  0.28166770    -0.11400
C458        C  0.99789490  0.24119945  0.28529016     0.05700
C459        C  0.97278233  0.24417986  0.26821374    -0.10200
C460        C  0.97105387  0.26605068  0.24727503    -0.11900
C461        C  0.99448319  0.28562461  0.24297140    -0.01600
C462        C  0.01916810  0.28308523  0.26104133    -0.10700
C463        C  0.99990176  0.21757231  0.30691268     0.05700
H464        H  0.95456575  0.22929876  0.27084361     0.07600
H465        H  0.95101528  0.26744644  0.23515210     0.11100
H466        H  0.03725094  0.29821058  0.25896544     0.11400
H467        H  0.04039914  0.25941184  0.29503652     0.07700
C468        C  0.02467482  0.19979190  0.30795721    -0.11500
C469        C  0.02675437  0.17755258  0.32850691    -0.10700
C470        C  0.00407945  0.17274462  0.34871548    -0.01700
C471        C  0.97933270  0.19084257  0.34749915    -0.11800
C472        C  0.97714580  0.21278019  0.32672266    -0.10200
H473        H  0.04246924  0.20310684  0.29277417     0.07700
H474        H  0.04657134  0.16502626  0.32865547     0.11400
H475        H  0.96173222  0.18819031  0.36303078     0.11100
H476        H  0.95794738  0.22645745  0.32654507     0.07700
C477        C  0.02416366  0.23078200  0.66325883    -0.11400
C478        C  0.01592592  0.22182720  0.69120173     0.05700
C479        C  0.00810348  0.19263041  0.69568747    -0.10200
C480        C  0.00791852  0.17289538  0.67251143    -0.11900
C481        C  0.01477069  0.18200815  0.64408933    -0.01600
C482        C  0.02376712  0.21117806  0.64006400    -0.10700
C483        C  0.01472427  0.24321592  0.71529696     0.05700
H484        H  0.00213162  0.18505425  0.71719061     0.07600
H485        H  0.00177471  0.15051594  0.67665680     0.11100
H486        H  0.03090578  0.21942577  0.61930245     0.11400
H487        H  0.03036726  0.25317463  0.65920123     0.07700
C488        C  0.03718866  0.26370071  0.71914833    -0.11500
C489        C  0.03497370  0.28512463  0.74059468    -0.10700
C490        C  0.01011816  0.28688349  0.75858902    -0.01700
C491        C  0.98795341  0.26574859  0.75502801    -0.11800
C492        C  0.99033800  0.24417555  0.73371986    -0.10200
H493        H  0.05636904  0.26331449  0.70535648     0.07700
H494        H  0.05239313  0.30102738  0.74260957     0.11400
H495        H  0.96818316  0.26588524  0.76769769     0.11100
H496        H  0.97253510  0.22883165  0.73092847     0.07700
C497        C  0.02375672  0.34179918  0.36086160    -0.11400
C498        C  0.99864989  0.32487346  0.36626140     0.05700
C499        C  0.97307687  0.33079631  0.35051118    -0.10200
C500        C  0.97257283  0.35319118  0.33003532    -0.11900
C501        C  0.99770205  0.36995475  0.32465257    -0.01600
C502        C  0.02333841  0.36393817  0.34014277    -0.10700
C503        C  0.99921731  0.30125931  0.38829571     0.05700
H504        H  0.95351479  0.31788171  0.35370979     0.07600
H505        H  0.95259412  0.35715747  0.31815871     0.11100
H506        H  0.04301236  0.37659330  0.33651165     0.11400
H507        H  0.04368040  0.33824498  0.37294138     0.07700
C508        C  0.02447786  0.28444095  0.39209607    -0.11500
C509        C  0.02560595  0.26313597  0.41359316    -0.10700
C510        C  0.00139019  0.25785830  0.43157703    -0.01700
C511        C  0.97578730  0.27395792  0.42731972    -0.11800
C512        C  0.97476833  0.29559163  0.40601811    -0.10200
H513        H  0.04343634  0.28765662  0.37837980     0.07700
H514        H  0.04548856  0.25073599  0.41611278     0.11400
H515        H  0.95680662  0.27033484  0.44092660     0.11100
H516        H  0.95506747  0.30832836  0.40393292     0.07700
C517        C  0.97164210  0.67072371  0.30194479    -0.11400
C518        C  0.99493453  0.65101320  0.30068996     0.05700
C519        C  0.01659364  0.65240428  0.32216887    -0.10200
C520        C  0.01488085  0.67289569  0.34454630    -0.11900
C521        C  0.99162474  0.69282244  0.34604420    -0.01600
C522        C  0.96999969  0.69144829  0.32424986    -0.10700
C523        C  0.99630344  0.62840701  0.27764254     0.05700
H524        H  0.03457461  0.63718084  0.32202731     0.07600
H525        H  0.03178594  0.67311393  0.36099318     0.11100
H526        H  0.95153340  0.70586512  0.32410842     0.11400
H527        H  0.95470073  0.67016198  0.28554524     0.07700
C528        C  0.97153984  0.61172241  0.27072852    -0.11500
C529        C  0.97337344  0.58898607  0.25057901    -0.10700
C530        C  0.99983306  0.58268062  0.23625247    -0.01700
C531        C  0.02454312  0.59982867  0.24304800    -0.11800
C532        C  0.02274066  0.62234833  0.26346518    -0.10200
H533        H  0.95096681  0.61560845  0.28166624     0.07700
H534        H  0.95407399  0.57591908  0.24644403     0.11400
H535        H  0.04568755  0.59560168  0.23369812     0.11100
H536        H  0.04218782  0.63490304  0.26842480     0.07700
C537        C  0.02355068  0.57244666  0.40307215    -0.11400
C538        C  0.99818518  0.56596959  0.38703723     0.05700
C539        C  0.97248181  0.58144936  0.39304117    -0.10200
C540        C  0.97183164  0.60207591  0.41525308    -0.11900
C541        C  0.99698451  0.60805331  0.43165346    -0.01600
C542        C  0.02299410  0.59345606  0.42506529    -0.10700
C543        C  0.99811503  0.54235372  0.36500928     0.05700
H544        H  0.95277185  0.57759258  0.38062101     0.07600
H545        H  0.95159484  0.61342223  0.41953247     0.11100
H546        H  0.04270248  0.59777178  0.43735581     0.11400
H547        H  0.04362796  0.56070916  0.39923916     0.07700
C548        C  0.02278382  0.53713450  0.34756689    -0.11500
C549        C  0.02289668  0.51411462  0.32769329    -0.10700
C550        C  0.99821355  0.49616025  0.32464032    -0.01700
C551        C  0.97341778  0.50161763  0.34166392    -0.11800
C552        C  0.97344139  0.52430647  0.36179520    -0.10200
H553        H  0.04192587  0.55095789  0.34909730     0.07700
H554        H  0.04212938  0.51061139  0.31444382     0.11400
H555        H  0.95409329  0.48807712  0.33971444     0.11100
H556        H  0.95427468  0.52730499  0.37523835     0.07700
C557        C  0.97131429  0.61914690  0.72511174    -0.11400
C558        C  0.99700932  0.62663407  0.71013041     0.05700
C559        C  0.02280253  0.61160479  0.71683030    -0.10200
C560        C  0.02279757  0.58974775  0.73797496    -0.11900
C561        C  0.99718041  0.58259907  0.75345174    -0.01600
C562        C  0.97134394  0.59752383  0.74637725    -0.10700
C563        C  0.99648424  0.64965088  0.68732456     0.05700
H564        H  0.04307904  0.61678345  0.70585587     0.07600
H565        H  0.04291344  0.57820738  0.74216946     0.11100
H566        H  0.95064145  0.59209818  0.75615419     0.11400
H567        H  0.95080093  0.62948064  0.71986208     0.07700
C568        C  0.01363494  0.64732585  0.66208177    -0.11500
C569        C  0.01214521  0.66853626  0.64038912    -0.10700
C570        C  0.99281569  0.69224788  0.64277888    -0.01700
C571        C  0.97639880  0.69495785  0.66854384    -0.11800
C572        C  0.97829895  0.67403332  0.69044646    -0.10200
H573        H  0.02778613  0.62881267  0.65872467     0.07700
H574        H  0.02570129  0.66602723  0.62124332     0.11400
H575        H  0.96236460  0.71330016  0.67249989     0.11100
H576        H  0.96555212  0.67712854  0.71003385     0.07700
C577        C  0.98251260  0.28680436  0.59554893    -0.11400
C578        C  0.00752714  0.30401563  0.60050709     0.05700
C579        C  0.03243904  0.29914570  0.58328873    -0.10200
C580        C  0.03228385  0.27773925  0.56162636    -0.11900
C581        C  0.00714119  0.26087755  0.55647797    -0.01600
C582        C  0.98227993  0.26559322  0.57370520    -0.10700
C583        C  0.00743297  0.32718025  0.62323929     0.05700
H584        H  0.05194391  0.31222418  0.58617772     0.07600
H585        H  0.05178484  0.27461244  0.54867870     0.11100
H586        H  0.96269801  0.25268602  0.57049404     0.11400
H587        H  0.96313696  0.28950400  0.60875752     0.07700
C588        C  0.98214453  0.34367686  0.62838433    -0.11500
C589        C  0.98185061  0.36534634  0.64973033    -0.10700
C590        C  0.00694342  0.37136991  0.66620209    -0.01700
C591        C  0.03233868  0.35511243  0.66103289    -0.11800
C592        C  0.03253967  0.33314239  0.63989134    -0.10200
H593        H  0.96260221  0.34014265  0.61562365     0.07700
H594        H  0.96202982  0.37767822  0.65307600     0.11400
H595        H  0.05194421  0.35913290  0.67358231     0.11100
H596        H  0.05225331  0.32058059  0.63687315     0.07700
C597        C  0.97542611  0.53231800  0.63877115    -0.11400
C598        C  0.00059045  0.54079370  0.62338868     0.05700
C599        C  0.02718370  0.52692669  0.62968690    -0.10200
C600        C  0.02850316  0.50505801  0.65074917    -0.11900
C601        C  0.00321261  0.49641742  0.66575807    -0.01600
C602        C  0.97669941  0.51031708  0.65957616    -0.10700
C603        C  0.99893953  0.56378511  0.60072097     0.05700
H604        H  0.04692006  0.53260997  0.61799682     0.07600
H605        H  0.04923418  0.49469584  0.65504425     0.11100
H606        H  0.95688585  0.50436667  0.67102862     0.11400
H607        H  0.95472224  0.54290196  0.63497411     0.07700
C608        C  0.97426047  0.56591421  0.58265520    -0.11500
C609        C  0.97264706  0.58744510  0.56133098    -0.10700
C610        C  0.99585802  0.60704457  0.55727216    -0.01700
C611        C  0.02051719  0.60503291  0.57526666    -0.11800
C612        C  0.02197442  0.58375982  0.59687310    -0.10200
H613        H  0.95632270  0.55062272  0.58464197     0.07700
H614        H  0.95345864  0.58841083  0.54764690     0.11400
H615        H  0.03859042  0.62012027  0.57283010     0.11100
H616        H  0.04102406  0.58317104  0.61075338     0.07700
C617        C  0.87335663  0.86001429  0.43383591    -0.11400
C618        C  0.88254284  0.84659631  0.40798606     0.05700
C619        C  0.87045653  0.85532427  0.38149409    -0.10200
C620        C  0.84907949  0.87672652  0.38076184    -0.11900
C621        C  0.83890084  0.88959935  0.40660447    -0.01600
C622        C  0.85153371  0.88130991  0.43317047    -0.10700
C623        C  0.90368737  0.82253232  0.40813931     0.05700
H624        H  0.87759179  0.84546271  0.36129590     0.07600
H625        H  0.84066567  0.88325124  0.35981319     0.11100
H626        H  0.84411285  0.89070271  0.45345187     0.11400
H627        H  0.88244047  0.85341257  0.45450367     0.07700
C628        C  0.93235618  0.82670647  0.41804718    -0.11500
C629        C  0.95301223  0.80453243  0.41479999    -0.10700
C630        C  0.94512202  0.77786384  0.40184951    -0.01700
C631        C  0.91602124  0.77347156  0.39318619    -0.11800
C632        C  0.89560485  0.79565230  0.39609694    -0.10200
H633        H  0.93899251  0.84745143  0.42718006     0.07700
H634        H  0.97531505  0.80868013  0.42142946     0.11400
H635        H  0.90901112  0.75294360  0.38387982     0.11100
H636        H  0.87348789  0.79200408  0.38855076     0.07700
C637        C  0.87269144  0.02125798  0.38189776    -0.11400
C638        C  0.88611529  0.02808103  0.40839075     0.05700
C639        C  0.87690907  0.01400296  0.43380318    -0.10200
C640        C  0.85407186  0.99366940  0.43275699    -0.11900
C641        C  0.84049993  0.98674184  0.40617007    -0.01600
C642        C  0.85035246  0.00060902  0.38071961    -0.10700
C643        C  0.90936297  0.05030208  0.40910697     0.05700
H644        H  0.88698392  0.01919994  0.45447426     0.07600
H645        H  0.84683043  0.98382906  0.45285025     0.11100
H646        H  0.84115962  0.99530162  0.35970744     0.11400
H647        H  0.87978672  0.03172917  0.36201907     0.07700
C648        C  0.93791891  0.04300604  0.41720952    -0.11500
C649        C  0.96048249  0.06349660  0.41458747    -0.10700
C650        C  0.95466270  0.09153942  0.40399591    -0.01700
C651        C  0.92577771  0.09904427  0.39714374    -0.11800
C652        C  0.90338088  0.07855041  0.39950798    -0.10200
H653        H  0.94290285  0.02117080  0.42442311     0.07700
H654        H  0.98258368  0.05703482  0.41972008     0.11400
H655        H  0.92054591  0.12067027  0.38952677     0.11100
H656        H  0.88139527  0.08456092  0.39336690     0.07700
C657        C  0.69457142  0.95593157  0.26508228    -0.11400
C658        C  0.69317531  0.93457632  0.28679017     0.05700
C659        C  0.67133219  0.91314227  0.28519325    -0.10200
C660        C  0.65080277  0.91359241  0.26285771    -0.11900
C661        C  0.65126966  0.93564768  0.24165113    -0.01600
C662        C  0.67391919  0.95650994  0.24275782    -0.10700
C663        C  0.71385164  0.93518586  0.31152811     0.05700
H664        H  0.66998147  0.89610643  0.30136093     0.07600
H665        H  0.63381683  0.89710473  0.26261353     0.11100
H666        H  0.67577028  0.97383489  0.22715672     0.11400
H667        H  0.71112337  0.97282186  0.26588440     0.07700
C668        C  0.74360207  0.94112853  0.30707880    -0.11500
C669        C  0.76291134  0.94199031  0.33055374    -0.10700
C670        C  0.75289139  0.93765064  0.35917374    -0.01700
C671        C  0.72307644  0.93088007  0.36333513    -0.11800
C672        C  0.70385425  0.92989465  0.33986426    -0.10200
H673        H  0.75202379  0.94469916  0.28536962     0.07700
H674        H  0.78581829  0.94615527  0.32635023     0.11400
H675        H  0.71418557  0.92558027  0.38437386     0.11100
H676        H  0.68101847  0.92519029  0.34396913     0.07700
C677        C  0.08052118  0.05135856  0.42817222    -0.11400
C678        C  0.09280886  0.03900384  0.40297204     0.05700
C679        C  0.08515486  0.05061928  0.37582141    -0.10200
C680        C  0.06538977  0.07346603  0.37380544    -0.11900
C681        C  0.05310211  0.08593214  0.39892263    -0.01600
C682        C  0.06093586  0.07461929  0.42616283    -0.10700
C683        C  0.11369513  0.01430105  0.40458534     0.05700
H684        H  0.09457817  0.04219446  0.35593894     0.07600
H685        H  0.05949060  0.08095729  0.35234712     0.11100
H686        H  0.05218104  0.08382892  0.44598432     0.11400
H687        H  0.08574817  0.04286187  0.44944706     0.07700
C688        C  0.13433295  0.01244393  0.42719179    -0.11500
C689        C  0.15545226  0.99048451  0.42705000    -0.10700
C690        C  0.15652962  0.97045845  0.40408787    -0.01700
C691        C  0.13542355  0.97151461  0.38214918    -0.11800
C692        C  0.11401531  0.99296941  0.38256203    -0.10200
H693        H  0.13491361  0.02856943  0.44436910     0.07700
H694        H  0.17173098  0.98992277  0.44409634     0.11400
H695        H  0.13579451  0.95591136  0.36445368     0.11100
H696        H  0.09796125  0.99306628  0.36531974     0.07700
C697        C  0.07534295  0.80315488  0.43144116    -0.11400
C698        C  0.09185117  0.81204128  0.40732890     0.05700
C699        C  0.08460632  0.80147226  0.37969304    -0.10200
C700        C  0.06122571  0.78229023  0.37611415    -0.11900
C701        C  0.04491511  0.77259455  0.40023969    -0.01600
C702        C  0.05224011  0.78335112  0.42797941    -0.10700
C703        C  0.11642164  0.83266528  0.41047405     0.05700
H704        H  0.09679195  0.80850953  0.36075170     0.07600
H705        H  0.05581803  0.77548132  0.35425541     0.11100
H706        H  0.04054144  0.77621042  0.44711764     0.11400
H707        H  0.08068078  0.81114849  0.45296330     0.07700
C708        C  0.11171114  0.86081857  0.42125530    -0.11500
C709        C  0.13418852  0.88152812  0.42058154    -0.10700
C710        C  0.16183671  0.87427233  0.40944058    -0.01700
C711        C  0.16684026  0.84551525  0.40017789    -0.11800
C712        C  0.14425424  0.82501602  0.40040189    -0.10200
H713        H  0.09025872  0.86715875  0.42883918     0.07700
H714        H  0.12938443  0.90354383  0.42740604     0.11400
H715        H  0.18802067  0.83900330  0.39205033     0.11100
H716        H  0.14831261  0.80329621  0.39216692     0.07700
C717        C  0.31328699  0.95939450  0.27018531    -0.11400
C718        C  0.30931011  0.93395058  0.28654891     0.05700
C719        C  0.32843148  0.91058891  0.28223009    -0.10200
C720        C  0.35107742  0.91264260  0.26201391    -0.11900
C721        C  0.35499966  0.93789308  0.24511966    -0.01600
C722        C  0.33578689  0.96138138  0.24968453    -0.10700
C723        C  0.28579572  0.93194075  0.30863615     0.05700
H724        H  0.32624404  0.89090437  0.29495457     0.07600
H725        H  0.36575499  0.89437952  0.25957123     0.11100
H726        H  0.33801789  0.98162712  0.23813309     0.11400
H727        H  0.29885052  0.97776820  0.27315977     0.07700
C728        C  0.28082117  0.95499381  0.32801601    -0.11500
C729        C  0.25968210  0.95248014  0.34976451    -0.10700
C730        C  0.24283827  0.92691019  0.35274433    -0.01700
C731        C  0.24756485  0.90404013  0.33281036    -0.11800
C732        C  0.26879165  0.90657813  0.31108869    -0.10200
H733        H  0.29383840  0.97469291  0.32685563     0.07700
H734        H  0.25678585  0.97043985  0.36477759     0.11400
H735        H  0.23559015  0.88384833  0.33383107     0.11100
H736        H  0.27201261  0.88858168  0.29619263     0.07700
C737        C  0.41602236  0.90585644  0.36952318    -0.11400
C738        C  0.39887462  0.93050537  0.37546752     0.05700
C739        C  0.40391424  0.95605406  0.35943697    -0.10200
C740        C  0.42580852  0.95710074  0.33836495    -0.11900
C741        C  0.44292487  0.93252052  0.33251643    -0.01600
C742        C  0.43771152  0.90680772  0.34813189    -0.10700
C743        C  0.37588153  0.92974573  0.39829636     0.05700
H744        H  0.39070484  0.97522345  0.36290544     0.07600
H745        H  0.42909931  0.97711044  0.32638693     0.11100
H746        H  0.45064492  0.88754680  0.34407821     0.11400
H747        H  0.41302465  0.88594050  0.38170094     0.07700
C748        C  0.35905991  0.90448452  0.40291942    -0.11500
C749        C  0.33726322  0.90400950  0.42419582    -0.10700
C750        C  0.33159132  0.92887420  0.44103452    -0.01700
C751        C  0.34834489  0.95409736  0.43649605    -0.11800
C752        C  0.37038534  0.95446240  0.41552916    -0.10200
H753        H  0.36235743  0.88521535  0.38976430     0.07700
H754        H  0.32453292  0.88431439  0.42715184     0.11400
H755        H  0.34462043  0.97349307  0.44937423     0.11100
H756        H  0.38330760  0.97408424  0.41303843     0.07700
C757        C  0.08045189  0.05484632  0.56813356    -0.11400
C758        C  0.09380349  0.04429905  0.59341838     0.05700
C759        C  0.08606378  0.05623008  0.62041055    -0.10200
C760        C  0.06592829  0.07881545  0.62212660    -0.11900
C761        C  0.05335398  0.09036804  0.59680893    -0.01600
C762        C  0.06050127  0.07783643  0.56979357    -0.10700
C763        C  0.11658252  0.02163863  0.59204756     0.05700
H764        H  0.09570850  0.04805205  0.64024672     0.07600
H765        H  0.06027979  0.08720160  0.64339079     0.11100
H766        H  0.05145245  0.08631368  0.54984729     0.11400
H767        H  0.08619555  0.04595942  0.54707379     0.07700
C768        C  0.11148771  0.99492516  0.57805787    -0.11500
C769        C  0.13228394  0.97268783  0.57950321    -0.10700
C770        C  0.15856097  0.97688632  0.59478675    -0.01700
C771        C  0.16412792  0.00432818  0.60730776    -0.11800
C772        C  0.14329881  0.02630832  0.60616588    -0.10200
H773        H  0.09098713  0.99089326  0.56701625     0.07700
H774        H  0.12721483  0.95200375  0.56956066     0.11400
H775        H  0.18451270  0.00885340  0.61832504     0.11100
H776        H  0.14792746  0.04697604  0.61660860     0.07700
C777        C  0.09448746  0.78170310  0.58096391    -0.11400
C778        C  0.08917938  0.81186246  0.58146518     0.05700
C779        C  0.06014833  0.82156543  0.58363555    -0.10200
C780        C  0.03714446  0.80166164  0.58594803    -0.11900
C781        C  0.04270795  0.77174931  0.58646919    -0.01600
C782        C  0.07146606  0.76184643  0.58375922    -0.10700
C783        C  0.11377638  0.83312300  0.58196950     0.05700
H784        H  0.05523125  0.84455552  0.58479419     0.07600
H785        H  0.01516244  0.80967863  0.58876755     0.11100
H786        H  0.07608341  0.73874928  0.58405468     0.11400
H787        H  0.11646732  0.77341512  0.57880926     0.07700
C788        C  0.13949480  0.82677852  0.59723858    -0.11500
C789        C  0.16137573  0.84774358  0.60043507    -0.10700
C790        C  0.15792845  0.87592823  0.58904122    -0.01700
C791        C  0.13291637  0.88173185  0.57240253    -0.11800
C792        C  0.11114332  0.86058621  0.56886077    -0.10200
H793        H  0.14236118  0.80594919  0.60774739     0.07700
H794        H  0.18077647  0.84180184  0.61235887     0.11400
H795        H  0.12944990  0.90279984  0.56283088     0.11100
H796        H  0.09195901  0.86598129  0.55628938     0.07700
C797        C  0.30394112  0.94911731  0.73744926    -0.11400
C798        C  0.30372086  0.92614302  0.71731535     0.05700
C799        C  0.32515779  0.90452926  0.71949265    -0.10200
C800        C  0.34677770  0.90634804  0.74090729    -0.11900
C801        C  0.34760720  0.92979099  0.76075062    -0.01600
C802        C  0.32543614  0.95092322  0.75889596    -0.10700
C803        C  0.28154199  0.92534134  0.69378109     0.05700
H804        H  0.32567471  0.88661438  0.70415753     0.07600
H805        H  0.36333642  0.88962003  0.74169078     0.11100
H806        H  0.32421241  0.96917900  0.77353273     0.11400
H807        H  0.28734570  0.96580508  0.73662511     0.07700
C808        C  0.26737154  0.89927999  0.68610869    -0.11500
C809        C  0.24633377  0.89882423  0.66404451    -0.10700
C810        C  0.23882589  0.92453449  0.64915312    -0.01700
C811        C  0.25386676  0.95034688  0.65639389    -0.11800
C812        C  0.27461190  0.95082934  0.67859110    -0.10200
H813        H  0.27248818  0.87922739  0.69726536     0.07700
H814        H  0.23685127  0.87804264  0.65834587     0.11400
H815        H  0.24973651  0.97026508  0.64460715     0.11100
H816        H  0.28573534  0.97110780  0.68347114     0.07700
C817        C  0.59256168  0.96100883  0.37100820    -0.11400
C818        C  0.61027135  0.93651933  0.37566400     0.05700
C819        C  0.60623720  0.91191828  0.35778638    -0.10200
C820        C  0.58491746  0.91177567  0.33600728    -0.11900
C821        C  0.56739226  0.93633524  0.33139503    -0.01600
C822        C  0.57155990  0.96099014  0.34901905    -0.10700
C823        C  0.63273866  0.93675244  0.39909150     0.05700
H824        H  0.61978829  0.89286966  0.36035818     0.07600
H825        H  0.58232488  0.89252693  0.32260327     0.11100
H826        H  0.55821947  0.98016086  0.34614161     0.11400
H827        H  0.59456908  0.98013117  0.38466530     0.07700
C828        C  0.64812250  0.96246574  0.40581945    -0.11500
C829        C  0.66854997  0.96304734  0.42832911    -0.10700
C830        C  0.67440528  0.93786128  0.44448133    -0.01700
C831        C  0.65954826  0.91198154  0.43748925    -0.11800
C832        C  0.63880655  0.91147115  0.41516880    -0.10200
H833        H  0.64460928  0.98216897  0.39350493     0.07700
H834        H  0.67999136  0.98322277  0.43290242     0.11400
H835        H  0.66364556  0.89222258  0.44955317     0.11100
H836        H  0.62715251  0.89136883  0.41089443     0.07700
C837        C  0.87063374  0.86379569  0.56924698    -0.11400
C838        C  0.88357103  0.85035250  0.59336388     0.05700
C839        C  0.87750728  0.86089355  0.62131847    -0.10200
C840        C  0.85830537  0.88399601  0.62529948    -0.11900
C841        C  0.84436310  0.89688014  0.60142297    -0.01600
C842        C  0.85103313  0.88687401  0.57325888    -0.10700
C843        C  0.90290150  0.82488581  0.59010470     0.05700
H844        H  0.88761885  0.85109091  0.64015548     0.07600
H845        H  0.85419630  0.89164842  0.64719731     0.11100
H846        H  0.84043711  0.89620468  0.55446749     0.11400
H847        H  0.87504812  0.85589555  0.54748662     0.07700
C848        C  0.89595074  0.79893328  0.60450360    -0.11500
C849        C  0.91567281  0.77587833  0.60487787    -0.10700
C850        C  0.94319528  0.77843684  0.59138319    -0.01700
C851        C  0.94941125  0.80400566  0.57565117    -0.11800
C852        C  0.92940817  0.82700047  0.57498098    -0.10200
H853        H  0.87539028  0.79674607  0.61598181     0.07700
H854        H  0.90932230  0.75622135  0.61614560     0.11400
H855        H  0.97007482  0.80689422  0.56469875     0.11100
H856        H  0.93517285  0.84691450  0.56377215     0.07700
C857        C  0.87558833  0.02410259  0.57259560    -0.11400
C858        C  0.88443988  0.04065735  0.59673234     0.05700
C859        C  0.87137873  0.03536393  0.62376927    -0.10200
C860        C  0.85029010  0.01355538  0.62681884    -0.11900
C861        C  0.84117071  0.99680653  0.60272731    -0.01600
C862        C  0.85395596  0.00262609  0.57548131    -0.10700
C863        C  0.90805945  0.06264180  0.59428225     0.05700
H864        H  0.87819203  0.04753096  0.64280768     0.07600
H865        H  0.84184465  0.00946815  0.64837469     0.11100
H866        H  0.84728007  0.99081162  0.55624989     0.11400
H867        H  0.88528625  0.02795107  0.55146023     0.07700
C868        C  0.93504996  0.05516145  0.58199616    -0.11500
C869        C  0.95837258  0.07491495  0.58242047    -0.10700
C870        C  0.95504745  0.10282180  0.59464928    -0.01700
C871        C  0.92751212  0.11062476  0.60581213    -0.11800
C872        C  0.90440724  0.09064345  0.60592011    -0.10200
H873        H  0.93846983  0.03355204  0.57321087     0.07700
H874        H  0.97924776  0.06769578  0.57419953     0.11400
H875        H  0.92374621  0.13206953  0.61476383     0.11100
H876        H  0.88366875  0.09698187  0.61528392     0.07700
C877        C  0.68712499  0.91449836  0.73750007    -0.11400
C878        C  0.69231919  0.94079336  0.72269245     0.05700
C879        C  0.67403338  0.96454827  0.72882941    -0.10200
C880        C  0.65112618  0.96193116  0.74879123    -0.11900
C881        C  0.64609210  0.93576396  0.76391896    -0.01600
C882        C  0.66450784  0.91202277  0.75785803    -0.10700
C883        C  0.71608118  0.94305293  0.70040650     0.05700
H884        H  0.67740258  0.98534594  0.71836385     0.07600
H885        H  0.63722556  0.98057640  0.75255233     0.11100
H886        H  0.66134618  0.89110522  0.76792898     0.11400
H887        H  0.70006872  0.89539516  0.73287164     0.07700
C888        C  0.74178581  0.92658697  0.70294516    -0.11500
C889        C  0.76313525  0.92713710  0.68115534    -0.10700
C890        C  0.75954463  0.94432381  0.65609889    -0.01700
C891        C  0.73480823  0.96237540  0.65465554    -0.11800
C892        C  0.71314767  0.96130449  0.67608161    -0.10200
H893        H  0.74558564  0.91324409  0.72189439     0.07700
H894        H  0.78249606  0.91431086  0.68454186     0.11400
H895        H  0.73167441  0.97667972  0.63626957     0.11100
H896        H  0.69374442  0.97427488  0.67302114     0.07700
C897        C  0.64946295  0.91428026  0.60993849    -0.11400
C898        C  0.63186409  0.93862792  0.61565379     0.05700
C899        C  0.63626873  0.96402366  0.59912682    -0.10200
C900        C  0.65740379  0.96486311  0.57716089    -0.11900
C901        C  0.67434599  0.94022963  0.57101462    -0.01600
C902        C  0.67031870  0.91502048  0.58777389    -0.10700
C903        C  0.60839273  0.93724041  0.63804860     0.05700
H904        H  0.62287591  0.98305880  0.60263250     0.07600
H905        H  0.66005959  0.98459049  0.56458693     0.11100
H906        H  0.68340649  0.89583948  0.58383126     0.11400
H907        H  0.64716616  0.89459653  0.62262787     0.07700
C908        C  0.59198791  0.91156178  0.64201996    -0.11500
C909        C  0.56916571  0.91057022  0.66220962    -0.10700
C910        C  0.56193809  0.93534662  0.67853570    -0.01700
C911        C  0.57848089  0.96088664  0.67492473    -0.11800
C912        C  0.60158531  0.96176729  0.65506467    -0.10200
H913        H  0.59630243  0.89237573  0.62904137     0.07700
H914        H  0.55677292  0.89058665  0.66461379     0.11400
H915        H  0.57372041  0.98013705  0.68767614     0.11100
H916        H  0.61416348  0.98167056  0.65310318     0.07700
C917        C  0.41280368  0.90545727  0.63519192    -0.11400
C918        C  0.39084526  0.92671700  0.63449147     0.05700
C919        C  0.39056208  0.94853272  0.65596821    -0.10200
C920        C  0.41248189  0.94978789  0.67694990    -0.11900
C921        C  0.43473670  0.92895171  0.67713748    -0.01600
C922        C  0.43443448  0.90643417  0.65651417    -0.10700
C923        C  0.36898894  0.92684550  0.61081795     0.05700
H924        H  0.37348636  0.96474510  0.65642651     0.07600
H925        H  0.41198179  0.96695599  0.69312752     0.11100
H926        H  0.45141585  0.89010731  0.65637510     0.11400
H927        H  0.41375341  0.88854769  0.61878547     0.07700
C928        C  0.36049455  0.95324461  0.59809333    -0.11500
C929        C  0.34023808  0.95352697  0.57550410    -0.10700
C930        C  0.32818647  0.92739553  0.56506068    -0.01700
C931        C  0.33674195  0.90096496  0.57764504    -0.11800
C932        C  0.35691597  0.90069128  0.60035277    -0.10200
H933        H  0.36984564  0.97370428  0.60531189     0.07700
H934        H  0.33413478  0.97420774  0.56612351     0.11400
H935        H  0.32766269  0.88049250  0.57011385     0.11100
H936        H  0.36281435  0.88004855  0.60993384     0.07700
C937        C  0.43106919  0.85389873  0.87664266    -0.11400
C938        C  0.40618815  0.84342335  0.89128645     0.05700
C939        C  0.37850728  0.85280125  0.88220337    -0.10200
C940        C  0.37569788  0.87243631  0.85939260    -0.11900
C941        C  0.40048074  0.88314727  0.84492744    -0.01600
C942        C  0.42823068  0.87372149  0.85373275    -0.10700
C943        C  0.40855036  0.82257768  0.91578703     0.05700
H944        H  0.35886134  0.84477176  0.89261645     0.07600
H945        H  0.35404544  0.87965302  0.85345830     0.11100
H946        H  0.44769417  0.88152837  0.84282394     0.11400
H947        H  0.45269523  0.84713726  0.88318581     0.07700
C948        C  0.42827810  0.79918245  0.91474655    -0.11500
C949        C  0.42789458  0.77787827  0.93647959    -0.10700
C950        C  0.40768031  0.77966128  0.95928855    -0.01700
C951        C  0.38895263  0.80354441  0.96110847    -0.11800
C952        C  0.38954313  0.82494538  0.93971424    -0.10200
H953        H  0.44308126  0.79668175  0.89655742     0.07700
H954        H  0.44248054  0.75945018  0.93489135     0.11400
H955        H  0.37346215  0.80528820  0.97883876     0.11100
H956        H  0.37463226  0.84307392  0.94157851     0.07700
C957        C  0.42692982  0.82437783  0.07152490    -0.11400
C958        C  0.41656382  0.81891552  0.09970108     0.05700
C959        C  0.40554137  0.79124454  0.10647411    -0.10200
C960        C  0.40377075  0.76969144  0.08513574    -0.11900
C961        C  0.41249179  0.77553590  0.05640989    -0.01600
C962        C  0.42478015  0.80288116  0.04997096    -0.10700
C963        C  0.41413215  0.84271261  0.12117190     0.05700
H964        H  0.39760344  0.78658194  0.12816536     0.07600
H965        H  0.39491101  0.74863547  0.09102517     0.11100
H966        H  0.43138858  0.80820783  0.02802398     0.11400
H967        H  0.43523876  0.84572726  0.06585023     0.07700
C968        C  0.43866115  0.85857578  0.13044871    -0.11500
C969        C  0.43565686  0.88086339  0.15112265    -0.10700
C970        C  0.40796419  0.88804896  0.16235017    -0.01700
C971        C  0.38346183  0.87239647  0.15222891    -0.11800
C972        C  0.38659102  0.84980934  0.13224235    -0.10200
H973        H  0.46013277  0.85334166  0.12210905     0.07700
H974        H  0.45511611  0.89200247  0.15854493     0.11400
H975        H  0.36161213  0.87767763  0.15931894     0.11100
H976        H  0.36732569  0.83812777  0.12496303     0.07700
C977        C  0.06781762  0.50970494  0.10996048    -0.11400
C978        C  0.09618040  0.51938949  0.11623539     0.05700
C979        C  0.10300886  0.52853064  0.14451685    -0.10200
C980        C  0.08135726  0.52952621  0.16585266    -0.11900
C981        C  0.05238182  0.52188083  0.15912292    -0.01600
C982        C  0.04603711  0.51102294  0.13125120    -0.10700
C983        C  0.11766454  0.52329093  0.09269777     0.05700
H984        H  0.12488346  0.53586777  0.14976456     0.07600
H985        H  0.08708189  0.53732446  0.18734517     0.11100
H986        H  0.02401811  0.50523044  0.12529738     0.11400
H987        H  0.06214280  0.50278216  0.08814845     0.07700
C988        C  0.12731256  0.49967134  0.07600212    -0.11500
C989        C  0.14767175  0.50398766  0.05367113    -0.10700
C990        C  0.15816240  0.53212053  0.04721614    -0.01700
C991        C  0.14780031  0.55572775  0.06379825    -0.11800
C992        C  0.12806727  0.55128388  0.08646396    -0.10200
H993        H  0.11945460  0.47789242  0.08057521     0.07700
H994        H  0.15542902  0.48514277  0.04192491     0.11400
H995        H  0.15452458  0.57781250  0.05915625     0.11100
H996        H  0.12043711  0.56984359  0.09886021     0.07700
C997        C  0.08221095  0.55556032  0.87113498    -0.11400
C998        C  0.08999142  0.52845310  0.88254152     0.05700
C999        C  0.07561849  0.50335575  0.87254448    -0.10200
C1000       C  0.05450725  0.50532134  0.85059617    -0.11900
C1001       C  0.04696440  0.53251557  0.83869845    -0.01600
C1002       C  0.06077497  0.55763293  0.84978043    -0.10700
C1003       C  0.11383540  0.52685640  0.90408756     0.05700
H1004       H  0.08139815  0.48219955  0.88104672     0.07600
H1005       H  0.04478399  0.48539177  0.84258890     0.11100
H1006       H  0.05504983  0.57910502  0.84222426     0.11400
H1007       H  0.09272319  0.57526228  0.87890910     0.07700
C1008       C  0.14081841  0.53984330  0.89773129    -0.11500
C1009       C  0.16262157  0.54144594  0.91876975    -0.10700
C1010       C  0.15774587  0.53070801  0.94698793    -0.01700
C1011       C  0.13110296  0.51649668  0.95295364    -0.11800
C1012       C  0.10938808  0.51439266  0.93156529    -0.10200
H1013       H  0.14485319  0.54917367  0.87649476     0.07700
H1014       H  0.18317422  0.55155411  0.91291415     0.11400
H1015       H  0.12642941  0.50812907  0.97442116     0.11100
H1016       H  0.08864971  0.50430166  0.93688573     0.07700
C1017       C  0.31155675  0.67052470  0.02609410    -0.11400
C1018       C  0.30805713  0.65329655  0.00113161     0.05700
C1019       C  0.32735142  0.65736599  0.97774560    -0.10200
C1020       C  0.34994917  0.67794199  0.97954866    -0.11900
C1021       C  0.35371326  0.69530810  0.00461091    -0.01600
C1022       C  0.33394901  0.69126884  0.02784803    -0.10700
C1023       C  0.28475890  0.63069004  0.99988481     0.05700
H1024       H  0.32536686  0.64413792  0.95832506     0.07600
H1025       H  0.36484917  0.68012046  0.96137341     0.11100
H1026       H  0.33561968  0.70336411  0.04783812     0.11400
H1027       H  0.29687002  0.66791482  0.04438464     0.07700
C1028       C  0.28080993  0.61122235  0.02302036    -0.11500
C1029       C  0.25935044  0.58949197  0.02165629    -0.10700
C1030       C  0.24092352  0.58670947  0.99728137    -0.01700
C1031       C  0.24481783  0.60665664  0.97424077    -0.11800
C1032       C  0.26650661  0.62822196  0.97554249    -0.10200
H1033       H  0.29479304  0.61242066  0.04195478     0.07700
H1034       H  0.25734340  0.57444320  0.03963110     0.11400
H1035       H  0.23192510  0.60570011  0.95471392     0.11100
H1036       H  0.26900150  0.64308120  0.95746327     0.07700
C1037       C  0.42918957  0.05169842  0.07081727    -0.11400
C1038       C  0.41177304  0.05276619  0.09597535     0.05700
C1039       C  0.39087069  0.07493394  0.09828217    -0.10200
C1040       C  0.38741616  0.09537072  0.07622585    -0.11900
C1041       C  0.40415363  0.09397102  0.05054035    -0.01600
C1042       C  0.42534605  0.07189356  0.04837941    -0.10700
C1043       C  0.41441839  0.03053413  0.11942463     0.05700
H1044       H  0.37660118  0.07632206  0.11699211     0.07600
H1045       H  0.37143556  0.11220035  0.07975224     0.11100
H1046       H  0.43891793  0.06962791  0.02936372     0.11400
H1047       H  0.44584741  0.03523476  0.06838433     0.07700
C1048       C  0.42075469  0.00125655  0.11286197    -0.11500
C1049       C  0.41982958  0.97996415  0.13459919    -0.10700
C1050       C  0.41214731  0.98746499  0.16317236    -0.01700
C1051       C  0.40730284  0.01680121  0.17006041    -0.11800
C1052       C  0.40870863  0.03809651  0.14854533    -0.10200
H1053       H  0.42505025  0.99448673  0.09072756     0.07700
H1054       H  0.42353659  0.95743700  0.12874297     0.11400
H1055       H  0.40194251  0.02322037  0.19209310     0.11100
H1056       H  0.40475554  0.06047347  0.15472878     0.07700
C1057       C  0.37934150  0.01690055  0.87743038    -0.11400
C1058       C  0.40712207  0.02464129  0.88755947     0.05700
C1059       C  0.43164703  0.00967470  0.87722366    -0.10200
C1060       C  0.42843948  0.98786163  0.85610866    -0.11900
C1061       C  0.40059046  0.98039967  0.84544227    -0.01600
C1062       C  0.37604964  0.99480719  0.85690395    -0.10700
C1063       C  0.40999219  0.04885520  0.90840207     0.05700
H1064       H  0.45327155  0.01544858  0.88487359     0.07600
H1065       H  0.44783876  0.97747554  0.84768309     0.11100
H1066       H  0.35414718  0.98903530  0.85018568     0.11400
H1067       H  0.36012818  0.02795169  0.88555480     0.07700
C1068       C  0.39974094  0.07646638  0.90077264    -0.11500
C1069       C  0.39860274  0.09867571  0.92142112    -0.10700
C1070       C  0.40717392  0.09352211  0.95028172    -0.01700
C1071       C  0.41885045  0.06624630  0.95750344    -0.11800
C1072       C  0.42034854  0.04405905  0.93664171    -0.10200
H1073       H  0.39189671  0.08057765  0.87896680     0.07700
H1074       H  0.39022800  0.11967317  0.91495286     0.11400
H1075       H  0.42538886  0.06151449  0.97954308     0.11100
H1076       H  0.42816656  0.02277017  0.94289486     0.07700
C1077       C  0.14194966  0.33100320  0.10353544    -0.11400
C1078       C  0.11567029  0.34543589  0.09824750     0.05700
C1079       C  0.11200411  0.36040299  0.07199488    -0.10200
C1080       C  0.13360377  0.35916154  0.05045989    -0.11900
C1081       C  0.15934889  0.34319812  0.05498715    -0.01600
C1082       C  0.16371392  0.33032068  0.08242325    -0.10700
C1083       C  0.09158001  0.34289283  0.11938208     0.05700
H1084       H  0.09185530  0.37181462  0.06760207     0.07600
H1085       H  0.12939370  0.36974837  0.03001588     0.11100
H1086       H  0.18375512  0.31921000  0.08771481     0.11400
H1087       H  0.14546349  0.31986780  0.12395599     0.07700
C1088       C  0.08288286  0.31522660  0.12890085    -0.11500
C1089       C  0.06043135  0.31221297  0.14909730    -0.10700
C1090       C  0.04639596  0.33685368  0.16053229    -0.01700
C1091       C  0.05501270  0.36460988  0.15086244    -0.11800
C1092       C  0.07734698  0.36759558  0.13026602    -0.10200
H1093       H  0.09329287  0.29586351  0.12039246     0.07700
H1094       H  0.05382495  0.29048160  0.15538900     0.11400
H1095       H  0.04487935  0.38402402  0.15950621     0.11100
H1096       H  0.08389426  0.38913831  0.12324337     0.07700
C1097       C  0.14470520  0.33337473  0.90336191    -0.11400
C1098       C  0.11794704  0.34743617  0.90835683     0.05700
C1099       C  0.11232096  0.35876337  0.93623752    -0.10200
C1100       C  0.13252126  0.35531769  0.95868399    -0.11900
C1101       C  0.15897042  0.34079727  0.95374766    -0.01600
C1102       C  0.16502947  0.33034719  0.92566355    -0.10700
C1103       C  0.09558549  0.34889204  0.88494999     0.05700
H1104       H  0.09222962  0.37019473  0.94084493     0.07600
H1105       H  0.12701108  0.36353665  0.97997953     0.11100
H1106       H  0.18547850  0.31967775  0.92079923     0.11400
H1107       H  0.14977479  0.32392745  0.88240001     0.07700
C1108       C  0.10398601  0.35052113  0.85552887    -0.11500
C1109       C  0.08315799  0.34847039  0.83348400    -0.10700
C1110       C  0.05352176  0.34566375  0.84042981    -0.01700
C1111       C  0.04479736  0.34544886  0.86957484    -0.11800
C1112       C  0.06563320  0.34679465  0.89167340    -0.10200
H1113       H  0.12670083  0.35289353  0.84944377     0.07700
H1114       H  0.09016241  0.34868437  0.81098668     0.11400
H1115       H  0.02200920  0.34267133  0.87523079     0.11100
H1116       H  0.05826528  0.34487722  0.91394016     0.07700
C1117       C  0.32314997  0.21351382  0.02504373    -0.11400
C1118       C  0.30645654  0.21971990  0.00026492     0.05700
C1119       C  0.31138220  0.20354465  0.97481226    -0.10200
C1120       C  0.33249686  0.18161765  0.97412851    -0.11900
C1121       C  0.34923177  0.17521040  0.99902094    -0.01600
C1122       C  0.34431106  0.19175031  0.02435710    -0.10700
C1123       C  0.28406242  0.24303946  0.00111495     0.05700
H1124       H  0.29884633  0.20783147  0.95536305     0.07600
H1125       H  0.33600557  0.17065925  0.95368491     0.11100
H1126       H  0.35735449  0.18815081  0.04362377     0.11400
H1127       H  0.32033561  0.22598707  0.04484428     0.07700
C1128       C  0.26607425  0.24621181  0.02557905    -0.11500
C1129       C  0.24535083  0.26834547  0.02699953    -0.10700
C1130       C  0.24171285  0.28801664  0.00375686    -0.01700
C1131       C  0.25991678  0.28472101  0.97924312    -0.11800
C1132       C  0.28073833  0.26252166  0.97788745    -0.10200
H1133       H  0.26795260  0.23141360  0.04375339     0.07700
H1134       H  0.23289753  0.26969631  0.04678661     0.11400
H1135       H  0.25811992  0.29959693  0.96112381     0.11100
H1136       H  0.29461418  0.26094340  0.95887821     0.07700
C1137       C  0.34749615  0.33330405  0.02370944    -0.11400
C1138       C  0.36267073  0.32563224  0.99824859     0.05700
C1139       C  0.35682201  0.34092499  0.97247638    -0.10200
C1140       C  0.33694699  0.36389294  0.97240749    -0.11900
C1141       C  0.32276670  0.37224465  0.99816378    -0.01600
C1142       C  0.32790094  0.35645930  0.02370226    -0.10700
C1143       C  0.38565252  0.30293155  0.99897635     0.05700
H1144       H  0.36828903  0.33580943  0.95253487     0.07600
H1145       H  0.33316658  0.37551242  0.95232453     0.11100
H1146       H  0.31676018  0.36199995  0.04372943     0.11400
H1147       H  0.35087943  0.32151024  0.04374939     0.07700
C1148       C  0.40398705  0.30046381  0.02334110    -0.11500
C1149       C  0.42659381  0.28024133  0.02366307    -0.10700
C1150       C  0.43171498  0.26237211  0.99945447    -0.01700
C1151       C  0.41328619  0.26446467  0.97519838    -0.11800
C1152       C  0.39033289  0.28441213  0.97503526    -0.10200
H1153       H  0.40140332  0.31469578  0.04194167     0.07700
H1154       H  0.44050666  0.27905046  0.04263824     0.11400
H1155       H  0.41648918  0.25052422  0.95645608     0.11100
H1156       H  0.37627006  0.28532164  0.95616860     0.07700
C1157       C  0.85513372  0.34974517  0.89199087    -0.11400
C1158       C  0.88481407  0.35139325  0.89993218     0.05700
C1159       C  0.89192479  0.35143701  0.92971034    -0.10200
C1160       C  0.87006803  0.34887284  0.95081872    -0.11900
C1161       C  0.84076821  0.34561610  0.94260698    -0.01600
C1162       C  0.83340276  0.34645035  0.91308925    -0.10700
C1163       C  0.90822131  0.35080082  0.87732581     0.05700
H1164       H  0.91443770  0.35219110  0.93677441     0.07600
H1165       H  0.87619413  0.34803470  0.97353838     0.11100
H1166       H  0.81083350  0.34433491  0.90637539     0.11400
H1167       H  0.84863289  0.35050278  0.86940268     0.07700
C1168       C  0.90413912  0.33474300  0.85159687    -0.11500
C1169       C  0.92655329  0.33211986  0.83125572    -0.10700
C1170       C  0.95410754  0.34480600  0.83626553    -0.01700
C1171       C  0.95797674  0.36176836  0.86147112    -0.11800
C1172       C  0.93528314  0.36480932  0.88170503    -0.10200
H1173       H  0.88387552  0.32329809  0.84741983     0.07700
H1174       H  0.92217340  0.31975072  0.81169705     0.11400
H1175       H  0.97869901  0.37208005  0.86614491     0.11100
H1176       H  0.93911010  0.37788569  0.90093934     0.07700
C1177       C  0.91768983  0.30967062  0.11881630    -0.11400
C1178       C  0.90994444  0.33640259  0.10628482     0.05700
C1179       C  0.92243823  0.36207970  0.11769812    -0.10200
C1180       C  0.94179266  0.36096239  0.14125007    -0.11900
C1181       C  0.94930152  0.33415349  0.15370680    -0.01600
C1182       C  0.93737438  0.30853415  0.14178596    -0.10700
C1183       C  0.88854716  0.33712635  0.08186062     0.05700
H1184       H  0.91741776  0.38306986  0.10841352     0.07600
H1185       H  0.95048591  0.38113214  0.14989630     0.11100
H1186       H  0.94326023  0.28734198  0.15003391     0.11400
H1187       H  0.90824427  0.28940367  0.11125583     0.07700
C1188       C  0.88655263  0.31359631  0.06224163    -0.11500
C1189       C  0.86477586  0.31273614  0.04111694    -0.10700
C1190       C  0.84506495  0.33575353  0.03846612    -0.01700
C1191       C  0.84774368  0.35999938  0.05679074    -0.11800
C1192       C  0.86906187  0.36054527  0.07857682    -0.10200
H1193       H  0.90170252  0.29563582  0.06321352     0.07700
H1194       H  0.86333086  0.29407867  0.02673091     0.11400
H1195       H  0.83262908  0.37796039  0.05496255     0.11100
H1196       H  0.86958416  0.37888821  0.09336111     0.07700
C1197       C  0.57152869  0.05020922  0.06946942    -0.11400
C1198       C  0.58766921  0.05292618  0.09518568     0.05700
C1199       C  0.60310168  0.07874162  0.10061996    -0.10200
C1200       C  0.60385965  0.10082088  0.07994897    -0.11900
C1201       C  0.58985038  0.09729437  0.05290203    -0.01600
C1202       C  0.57263652  0.07219884  0.04849845    -0.10700
C1203       C  0.59058049  0.02824007  0.11538266     0.05700
H1204       H  0.61513944  0.08154262  0.12070448     0.07600
H1205       H  0.61599108  0.12037637  0.08516014     0.11100
H1206       H  0.56085820  0.06874276  0.02853366     0.11400
H1207       H  0.55927274  0.03049372  0.06500037     0.07700
C1208       C  0.56603299  0.01445973  0.12748450    -0.11500
C1209       C  0.56954215  0.99222992  0.14796763    -0.10700
C1210       C  0.59764757  0.98325779  0.15627731    -0.01700
C1211       C  0.62204778  0.99624318  0.14289517    -0.11800
C1212       C  0.61854193  0.01865970  0.12294499    -0.10200
H1213       H  0.54425797  0.02154239  0.12180464     0.07700
H1214       H  0.55029417  0.98283675  0.15793869     0.11400
H1215       H  0.64399342  0.98923123  0.14787753     0.11100
H1216       H  0.63775233  0.02859508  0.11334316     0.07700
C1217       C  0.57254246  0.04730007  0.93865232    -0.11400
C1218       C  0.58599390  0.05044067  0.91149086     0.05700
C1219       C  0.59983010  0.07676887  0.90454173    -0.10200
C1220       C  0.60134310  0.09925052  0.92490423    -0.11900
C1221       C  0.58954548  0.09565711  0.95293516    -0.01600
C1222       C  0.57438193  0.06971056  0.95922534    -0.10700
C1223       C  0.58802305  0.02569255  0.89119741     0.05700
H1224       H  0.61002421  0.07966988  0.88347417     0.07600
H1225       H  0.61226132  0.11922765  0.91874824     0.11100
H1226       H  0.56493605  0.06602145  0.98035660     0.11400
H1227       H  0.56182848  0.02705089  0.94438695     0.07700
C1228       C  0.61563875  0.01566637  0.88294510    -0.11500
C1229       C  0.61834969  0.99353810  0.86242403    -0.10700
C1230       C  0.59346856  0.98129860  0.84923992    -0.01700
C1231       C  0.56568559  0.99070730  0.85826496    -0.11800
C1232       C  0.56298214  0.01266301  0.87928862    -0.10200
H1233       H  0.63518144  0.02514497  0.89234053     0.07700
H1234       H  0.64004762  0.98616313  0.85683682     0.11400
H1235       H  0.54608532  0.98186952  0.84846564     0.11100
H1236       H  0.54147370  0.02016458  0.88551190     0.07700
C1237       C  0.67083688  0.21729568  0.97320377    -0.11400
C1238       C  0.69090827  0.22121185  0.99592107     0.05700
C1239       C  0.68856392  0.20346970  0.02059540    -0.10200
C1240       C  0.66661883  0.18235054  0.02266299    -0.11900
C1241       C  0.64630792  0.17827741  0.99995928    -0.01600
C1242       C  0.64883662  0.19618607  0.97523961    -0.10700
C1243       C  0.71404115  0.24391964  0.99417559     0.05700
H1244       H  0.70383721  0.20587715  0.03840013     0.07600
H1245       H  0.66570364  0.17003365  0.04251034     0.11100
H1246       H  0.63335265  0.19408653  0.95757489     0.11400
H1247       H  0.67177109  0.23097346  0.95409318     0.07700
C1248       C  0.72975207  0.24843286  0.96831658    -0.11500
C1249       C  0.75171626  0.26968745  0.96681320    -0.10700
C1250       C  0.75842984  0.28706287  0.99121158    -0.01700
C1251       C  0.74237368  0.28252640  0.01697136    -0.11800
C1252       C  0.72061117  0.26123640  0.01848219    -0.10200
H1253       H  0.72519919  0.23532179  0.94925084     0.07700
H1254       H  0.76272260  0.27254914  0.94628913     0.11400
H1255       H  0.74649290  0.29587640  0.03598359     0.11100
H1256       H  0.70853673  0.25868214  0.03857615     0.07700
C1257       C  0.63458112  0.34395519  0.97425378    -0.11400
C1258       C  0.62958349  0.32722771  0.99928532     0.05700
C1259       C  0.64680456  0.33226285  0.02407640    -0.10200
C1260       C  0.66817699  0.35402780  0.02400311    -0.11900
C1261       C  0.67281839  0.37098287  0.99907329    -0.01600
C1262       C  0.65606293  0.36553163  0.97411464    -0.10700
C1263       C  0.60585342  0.30526841  0.99970675     0.05700
H1264       H  0.64376682  0.31934905  0.04350601     0.07600
H1265       H  0.68109333  0.35754716  0.04340913     0.11100
H1266       H  0.65917917  0.37831964  0.95460917     0.11400
H1267       H  0.62140018  0.34084967  0.95496352     0.07700
C1268       C  0.58784758  0.30235455  0.02428738    -0.11500
C1269       C  0.56486681  0.28232511  0.02436987    -0.10700
C1270       C  0.55927467  0.26509832  0.99976363    -0.01700
C1271       C  0.57727227  0.26789289  0.97521516    -0.11800
C1272       C  0.60045719  0.28768508  0.97524171    -0.10200
H1273       H  0.59120568  0.31591862  0.04328086     0.07700
H1274       H  0.55126620  0.28053676  0.04356428     0.11400
H1275       H  0.57370270  0.25445055  0.95616357     0.11100
H1276       H  0.61428877  0.28909774  0.95618665     0.07700
C1277       C  0.59981233  0.79045482  0.90239840    -0.11400
C1278       C  0.58365909  0.81585567  0.90784572     0.05700
C1279       C  0.57090307  0.81928735  0.93553085    -0.10200
C1280       C  0.57552715  0.79870989  0.95745833    -0.11900
C1281       C  0.59254268  0.77386342  0.95215141    -0.01600
C1282       C  0.60370639  0.76962041  0.92396725    -0.10700
C1283       C  0.58195739  0.83919355  0.88529544     0.05700
H1284       H  0.55764907  0.83807296  0.94053973     0.07600
H1285       H  0.56636787  0.80287071  0.97867641     0.11100
H1286       H  0.61594929  0.75033140  0.91838665     0.11400
H1287       H  0.61046968  0.78685420  0.88173127     0.07700
C1288       C  0.58020209  0.86876419  0.89335212    -0.11500
C1289       C  0.58232829  0.89069228  0.87242658    -0.10700
C1290       C  0.58701153  0.88359099  0.84316194    -0.01700
C1291       C  0.58756422  0.85429956  0.83476030    -0.11800
C1292       C  0.58450516  0.83234975  0.85549028    -0.10200
H1293       H  0.57862231  0.87520168  0.91591909     0.07700
H1294       H  0.58191005  0.91324854  0.87932609     0.11400
H1295       H  0.59061615  0.84841891  0.81214768     0.11100
H1296       H  0.58474071  0.81000790  0.84805121     0.07700
C1297       C  0.57603182  0.81918565  0.07201687    -0.11400
C1298       C  0.59237114  0.81729200  0.09778750     0.05700
C1299       C  0.61129980  0.79356198  0.10119932    -0.10200
C1300       C  0.61401717  0.77252996  0.07943165    -0.11900
C1301       C  0.59846460  0.77489044  0.05314520    -0.01600
C1302       C  0.57920623  0.79843575  0.04994168    -0.10700
C1303       C  0.59077282  0.84047064  0.12049393     0.05700
H1304       H  0.62463179  0.79144199  0.12046840     0.07600
H1305       H  0.62847856  0.75448835  0.08349640     0.11100
H1306       H  0.56684473  0.80144710  0.03026884     0.11400
H1307       H  0.56081637  0.83682480  0.06874079     0.07700
C1308       C  0.58687090  0.86981474  0.11267853    -0.11500
C1309       C  0.58805853  0.89182587  0.13368255    -0.10700
C1310       C  0.59374223  0.88504115  0.16279824    -0.01700
C1311       C  0.59663925  0.85581869  0.17092431    -0.11800
C1312       C  0.59481870  0.83373487  0.15006267    -0.10200
H1313       H  0.58415792  0.87600376  0.09017630     0.07700
H1314       H  0.58605450  0.91429170  0.12692133     0.11400
H1315       H  0.60067462  0.85012430  0.19338740     0.11100
H1316       H  0.59705615  0.81140615  0.15710608     0.07700
C1317       C  0.88770614  0.50729130  0.92857617    -0.11400
C1318       C  0.88387260  0.52154975  0.90185738     0.05700
C1319       C  0.85846988  0.53811400  0.89778629    -0.10200
C1320       C  0.83785103  0.54091813  0.91997784    -0.11900
C1321       C  0.84216368  0.52757135  0.94709208    -0.01600
C1322       C  0.86710204  0.51022843  0.95086835    -0.10700
C1323       C  0.90664182  0.52025696  0.87870011     0.05700
H1324       H  0.85478509  0.54968651  0.87767535     0.07600
H1325       H  0.81857112  0.55372770  0.91577097     0.11100
H1326       H  0.87123188  0.49928742  0.97116612     0.11400
H1327       H  0.90668841  0.49388248  0.93234267     0.07700
C1328       C  0.93653664  0.52008369  0.88588690    -0.11500
C1329       C  0.95786334  0.52156490  0.86413394    -0.10700
C1330       C  0.94971412  0.52378862  0.83487957    -0.01700
C1331       C  0.92005047  0.52306032  0.82750131    -0.11800
C1332       C  0.89873652  0.52093940  0.84914314    -0.10200
H1333       H  0.94351409  0.52002546  0.90835224     0.07700
H1334       H  0.98068890  0.52244197  0.87024033     0.11400
H1335       H  0.91339256  0.52454185  0.80497109     0.11100
H1336       H  0.87602712  0.52033616  0.84269461     0.07700
C1337       C  0.85441991  0.51619576  0.09781196    -0.11400
C1338       C  0.88426357  0.51455585  0.09078643     0.05700
C1339       C  0.89262313  0.51406392  0.06136346    -0.10200
C1340       C  0.87175043  0.51702728  0.03954867    -0.11900
C1341       C  0.84234628  0.52079744  0.04681734    -0.01600
C1342       C  0.83365440  0.51960253  0.07598694    -0.10700
C1343       C  0.90668877  0.51659275  0.11387033     0.05700
H1344       H  0.91541633  0.51321482  0.05519231     0.07600
H1345       H  0.87883474  0.51834500  0.01717404     0.11100
H1346       H  0.81089310  0.52211794  0.08187014     0.11400
H1347       H  0.84720977  0.51587427  0.12022982     0.07700
C1348       C  0.90234090  0.53519399  0.13771842    -0.11500
C1349       C  0.92430824  0.53944087  0.15817906    -0.10700
C1350       C  0.95149668  0.52563564  0.15509891    -0.01700
C1351       C  0.95547113  0.50628817  0.13170835    -0.11800
C1352       C  0.93332073  0.50180202  0.11134243    -0.10200
H1353       H  0.88223323  0.54723837  0.14020726     0.07700
H1354       H  0.91973312  0.55364344  0.17637291     0.11400
H1355       H  0.97570838  0.49486443  0.12857719     0.11100
H1356       H  0.93717631  0.48695436  0.09344467     0.07700
C1357       C  0.68033413  0.65575672  0.02597032    -0.11400
C1358       C  0.69804452  0.65143345  0.00140916     0.05700
C1359       C  0.69329159  0.66868915  0.97677061    -0.10200
C1360       C  0.67117342  0.68956951  0.97647253    -0.11900
C1361       C  0.65308736  0.69391062  0.00097119    -0.01600
C1362       C  0.65808844  0.67654355  0.02566724    -0.10700
C1363       C  0.72074276  0.62836717  0.00107364     0.05700
H1364       H  0.70666795  0.66593206  0.95753778     0.07600
H1365       H  0.66817245  0.70134020  0.95651040     0.11100
H1366       H  0.64434554  0.67879483  0.04470962     0.11400
H1367       H  0.68313544  0.64247751  0.04516250     0.07700
C1368       C  0.73884437  0.62391581  0.02523884    -0.11500
C1369       C  0.75966915  0.60170161  0.02517111    -0.10700
C1370       C  0.76286682  0.58316124  0.00086325    -0.01700
C1371       C  0.74471764  0.58792599  0.97665888    -0.11800
C1372       C  0.72407312  0.61022813  0.97669657    -0.10200
H1373       H  0.73689672  0.63768207  0.04428061     0.07700
H1374       H  0.77245368  0.59908683  0.04460603     0.11400
H1375       H  0.74621159  0.57390872  0.95775282     0.11100
H1376       H  0.71015872  0.61279323  0.95787641     0.07700
C1377       C  0.60430098  0.58229564  0.02635671    -0.11400
C1378       C  0.60901686  0.56477255  0.00174030     0.05700
C1379       C  0.59118140  0.56850328  0.97719398    -0.10200
C1380       C  0.56894772  0.58914556  0.97734238    -0.11900
C1381       C  0.56389138  0.60616611  0.00216406    -0.01600
C1382       C  0.58183482  0.60270770  0.02661383    -0.10700
C1383       C  0.63190129  0.54211837  0.00182880     0.05700
H1384       H  0.59402101  0.55504782  0.95805170     0.07600
H1385       H  0.55539538  0.59145709  0.95822045     0.11100
H1386       H  0.57869179  0.61601142  0.04582554     0.11400
H1387       H  0.61805318  0.58029988  0.04536529     0.07700
C1388       C  0.64864337  0.53686097  0.97677976    -0.11500
C1389       C  0.66899251  0.51440180  0.97625781    -0.10700
C1390       C  0.67321685  0.49692399  0.00085289    -0.01700
C1391       C  0.65708231  0.50259371  0.02617466    -0.11800
C1392       C  0.63650058  0.52491760  0.02661770    -0.10200
H1393       H  0.64601933  0.55013866  0.95756435     0.07700
H1394       H  0.68155246  0.51081836  0.95661749     0.11400
H1395       H  0.65999948  0.48945460  0.04544820     0.11100
H1396       H  0.62369395  0.52824951  0.04613462     0.07700
C1397       C  0.36274118  0.52800943  0.02287502    -0.11400
C1398       C  0.36701436  0.54573640  0.99837304     0.05700
C1399       C  0.35021461  0.54028719  0.97331038    -0.10200
C1400       C  0.32992942  0.51743677  0.97270668    -0.11900
C1401       C  0.32579434  0.49983501  0.99726440    -0.01600
C1402       C  0.34226366  0.50547206  0.02237712    -0.10700
C1403       C  0.38976184  0.56894429  0.99875774     0.05700
H1404       H  0.35257829  0.55379650  0.95420807     0.07600
H1405       H  0.31720710  0.51380319  0.95319616     0.11100
H1406       H  0.33956653  0.49221093  0.04162888     0.11400
H1407       H  0.37566111  0.53110952  0.04232796     0.07700
C1408       C  0.39574866  0.58470206  0.02437142    -0.11500
C1409       C  0.41883573  0.60467602  0.02537295    -0.10700
C1410       C  0.43614740  0.60962521  0.00067124    -0.01700
C1411       C  0.42950072  0.59479301  0.97478177    -0.11800
C1412       C  0.40670816  0.57453699  0.97387682    -0.10200
H1413       H  0.38267866  0.58150968  0.04373445     0.07700
H1414       H  0.42310513  0.61628238  0.04545050     0.11400
H1415       H  0.44240771  0.59830813  0.95535413     0.11100
H1416       H  0.40301041  0.56260819  0.95389502     0.07700
loop_ 
_geom_bond_atom_site_label_1 
_geom_bond_atom_site_label_2 
_geom_bond_distance 
_geom_bond_site_symmetry_2 
_ccdc_geom_bond_type 
O1            V9   1.903       .  S
O1           C11   1.266       .  A
O2            V9   1.901       .  S
O2           C12   1.263       .  A
O3            V9   1.895       .  S
O3           C13   1.262       .  A
O4            V9   1.894       .  S
O4           C14   1.263       .  A
O5           V10   1.896       .  S
O5           C14   1.264   1_556  A
O6           V10   1.899       .  S
O6           C13   1.263   1_556  A
O7           V10   1.897       .  S
O7           C12   1.263   1_556  A
O8           V10   1.894       .  S
O8           C11   1.263   1_556  A
V9           V10   2.089   1_554  T
C11        C1410   1.476       .  S
C12          C34   1.467       .  S
C13         C134   1.463       .  S
C14        C1381   1.470       .  S
C15          C16   1.541       .  S
C15          C21   1.530   1_554  S
C15          C19   1.539   1_554  S
C15        C1370   1.531       .  S
C16          H23   1.082       .  S
C16          C17   1.366       .  D
C17        C1341   1.469       .  S
C17          C18   1.533   1_554  S
C18          C22   1.528       .  S
C18          C20   1.544       .  S
C18          H24   1.109       .  S
C19          H25   1.085       .  S
C19          C20   1.374       .  D
C20        C1321   1.494       .  S
C21          H26   1.087       .  S
C21          C22   1.361       .  D
C22          C51   1.458       .  S
C27          C28   1.540   1_554  S
C27          C33   1.531       .  S
C27          C31   1.534       .  S
C27        C1361   1.534       .  S
C28          H35   1.079       .  S
C28          C29   1.371       .  D
C29        C1281   1.496       .  S
C29          C30   1.546   1_556  S
C30          C34   1.530       .  S
C30          C32   1.552       .  S
C30          H36   1.106       .  S
C31          H37   1.084       .  S
C31          C32   1.374       .  D
C32        C1301   1.498       .  S
C33          H38   1.087       .  S
C33          C34   1.361       .  D
O39          V47   1.898       .  S
O39          C49   1.264       .  A
O40          V47   1.899       .  S
O40          C50   1.262   1_554  A
O41          V47   1.895       .  S
O41          C51   1.263   1_554  A
O42          V47   1.897       .  S
O42          C52   1.264   1_554  A
O43          V48   1.893       .  S
O43          C52   1.264       .  A
O44          V48   1.892       .  S
O44          C51   1.260       .  A
O45          V48   1.893       .  S
O45          C50   1.262       .  A
O46          V48   1.893       .  S
O46          C49   1.264   1_556  A
V47          V48   2.088   1_554  T
C49        C1390   1.472       .  S
C50          C72   1.460       .  S
C52        C1261   1.472       .  S
C53          C54   1.540       .  S
C53          C59   1.528       .  S
C53          C57   1.534   1_554  S
C53        C1241   1.531   1_554  S
C54          H61   1.078       .  S
C54          C55   1.372       .  D
C55        C1201   1.496       .  S
C55          C56   1.546       .  S
C56          C60   1.531       .  S
C56          C58   1.547   1_554  S
C56          H62   1.107       .  S
C57          H63   1.085       .  S
C57          C58   1.373       .  D
C58        C1221   1.492       .  S
C59          H64   1.088       .  S
C59          C60   1.359       .  D
C60          C88   1.461       .  S
C65          C66   1.546       .  S
C65          C71   1.527       .  S
C65          C69   1.537   1_556  S
C65        C1250   1.527       .  S
C66          H73   1.083       .  S
C66          C67   1.371       .  D
C67        C1161   1.478       .  S
C67          C68   1.539       .  S
C68          C72   1.533       .  S
C68          C70   1.536   1_556  S
C68          H74   1.111       .  S
C69          H75   1.086       .  S
C69          C70   1.366       .  D
C70        C1190   1.473       .  S
C71          H76   1.088       .  S
C71          C72   1.359       .  D
O77          V85   1.900       .  S
O77          C87   1.265       .  A
O78          V85   1.895       .  S
O78          C88   1.262   1_556  A
O79          V85   1.893       .  S
O79          C89   1.262   1_556  A
O80          V85   1.896       .  S
O80          C90   1.264   1_556  A
O81          V86   1.894       .  S
O81          C90   1.263       .  A
O82          V86   1.896       .  S
O82          C89   1.262       .  A
O83          V86   1.896       .  S
O83          C88   1.262       .  A
O84          V86   1.895       .  S
O84          C87   1.264   1_554  A
V85          V86   2.089   1_556  T
C87        C1150   1.473       .  S
C89         C110   1.459       .  S
C90        C1270   1.470   1_554  S
C91          C92   1.537       .  S
C91          C97   1.533       .  S
C91          C95   1.533   1_554  S
C91        C1130   1.534       .  S
C92          H99   1.077       .  S
C92          C93   1.369       .  D
C93        C1081   1.495       .  S
C93          C94   1.546       .  S
C94          C98   1.529       .  S
C94          C96   1.546   1_554  S
C94         H100   1.107       .  S
C95         H101   1.085       .  S
C95          C96   1.372       .  D
C96        C1101   1.486       .  S
C97         H102   1.087       .  S
C97          C98   1.364       .  D
C98         C150   1.467       .  S
C103        C104   1.537       .  S
C103        C109   1.524   1_556  S
C103        C107   1.537   1_556  S
C103       C1121   1.529       .  S
C104        H111   1.082       .  S
C104        C105   1.369       .  D
C105       C1070   1.485       .  S
C105        C106   1.544   1_556  S
C106        C110   1.531       .  S
C106        C108   1.551       .  S
C106        H112   1.106       .  S
C107        H113   1.083       .  S
C107        C108   1.377       .  D
C108       C1041   1.504       .  S
C109        H114   1.088       .  S
C109        C110   1.357       .  D
C115        C116   1.540       .  S
C115        C121   1.532       .  S
C115        C119   1.536   1_556  S
C115       C1030   1.536       .  S
C116        H123   1.079       .  S
C116        C117   1.370       .  D
C117       C1010   1.492       .  S
C117        C118   1.543       .  S
C118        C122   1.533       .  S
C118        C120   1.547   1_556  S
C118        H124   1.107       .  S
C119        H125   1.085       .  S
C119        C120   1.374       .  D
C120        C990   1.493       .  S
C121        H126   1.087       .  S
C121        C122   1.362       .  D
C122        C151   1.468       .  S
C127        C128   1.544       .  S
C127        C133   1.531       .  S
C127        C131   1.536   1_554  S
C127       C1021   1.535       .  S
C128        H135   1.080       .  S
C128        C129   1.371       .  D
C129        C961   1.487       .  S
C129        C130   1.542       .  S
C130        C134   1.531       .  S
C130        C132   1.536   1_554  S
C130        H136   1.110       .  S
C131        H137   1.086       .  S
C131        C132   1.367       .  D
C132        C950   1.470       .  S
C133        H138   1.087       .  S
C133        C134   1.363       .  D
O139        V147   1.904       .  S
O139        C149   1.266       .  A
O140        V147   1.903       .  S
O140        C150   1.265   1_556  A
O141        V147   1.900       .  S
O141        C151   1.263       .  A
O142        V147   1.896       .  S
O142        C152   1.264       .  A
O143        V148   1.897       .  S
O143        C152   1.265   1_554  A
O144        V148   1.902       .  S
O144        C151   1.264   1_554  A
O145        V148   1.894       .  S
O145        C150   1.261       .  A
O146        V148   1.890       .  S
O146        C149   1.263   1_554  A
V147        V148   2.087   1_556  T
C149       C1401   1.475       .  S
C152       C1141   1.475       .  S
O153        V161   1.894       .  S
O153        C163   1.263       .  A
O154        V161   1.896       .  S
O154        C164   1.263       .  A
O155        V161   1.901       .  S
O155        C165   1.264       .  A
O156        V161   1.901       .  S
O156        C166   1.265       .  A
O157        V162   1.899       .  S
O157        C166   1.265       .  A
O158        V162   1.898       .  S
O158        C165   1.263       .  A
O159        V162   1.897       .  S
O159        C164   1.262       .  A
O160        V162   1.897       .  S
O160        C163   1.264       .  A
V161        V162   2.089       .  T
C163        C921   1.467       .  S
C164        C186   1.462       .  S
C165        C224   1.466       .  S
C166        C910   1.477       .  S
C167        C168   1.541       .  S
C167        C173   1.530       .  S
C167        C171   1.532       .  S
C167        C890   1.533       .  S
C168        H175   1.082       .  S
C168        C169   1.369       .  D
C169        C841   1.487       .  S
C169        C170   1.542       .  S
C170        C174   1.536       .  S
C170        C172   1.551       .  S
C170        H176   1.107       .  S
C171        H177   1.084       .  S
C171        C172   1.374       .  D
C172        C861   1.498       .  S
C173        H178   1.087       .  S
C173        C174   1.360       .  D
C174        C202   1.464       .  S
C179        C180   1.535       .  S
C179        C185   1.529       .  S
C179        C183   1.546       .  S
C179        C881   1.532       .  S
C180        H187   1.085       .  S
C180        C181   1.371       .  D
C181       C1230   1.486       .  S
C181        C182   1.541       .  S
C182        C186   1.533       .  S
C182        C184   1.535       .  S
C182        H188   1.110       .  S
C183        H189   1.082       .  S
C183        C184   1.369       .  D
C184       C1290   1.477       .  S
C185        H190   1.087       .  S
C185        C186   1.363       .  D
O191        V199   1.897       .  S
O191        C201   1.264       .  A
O192        V199   1.898       .  S
O192        C202   1.263       .  A
O193        V199   1.900       .  S
O193        C203   1.264       .  A
O194        V199   1.905       .  S
O194        C204   1.266       .  A
O195        V200   1.895       .  S
O195        C204   1.264       .  A
O196        V200   1.896       .  S
O196        C203   1.262       .  A
O197        V200   1.899       .  S
O197        C202   1.263       .  A
O198        V200   1.905       .  S
O198        C201   1.266       .  A
V199        V200   2.088       .  T
C201        C830   1.480       .  S
C203        C286   1.463       .  S
C204        C901   1.478       .  S
C205        C206   1.534       .  S
C205        C211   1.526       .  S
C205        C209   1.537       .  S
C205        C810   1.528       .  S
C206        H213   1.085       .  S
C206        C207   1.371       .  D
C207        C770   1.491       .  S
C207        C208   1.548       .  S
C208        C212   1.533       .  S
C208        C210   1.549       .  S
C208        H214   1.108       .  S
C209        H215   1.081       .  S
C209        C210   1.373       .  D
C210        C790   1.494       .  S
C211        H216   1.088       .  S
C211        C212   1.360       .  D
C212        C241   1.464       .  S
C217        C218   1.535       .  S
C217        C223   1.530       .  S
C217        C221   1.543       .  S
C217        C801   1.532       .  S
C218        H225   1.086       .  S
C218        C219   1.370       .  D
C219        C941   1.483       .  S
C219        C220   1.540       .  S
C220        C224   1.535       .  S
C220        C222   1.543       .  S
C220        H226   1.108       .  S
C221        H227   1.079       .  S
C221        C222   1.371       .  D
C222       C1061   1.490       .  S
C223        H228   1.087       .  S
C223        C224   1.362       .  D
O229        V237   1.896       .  S
O229        C239   1.264       .  A
O230        V237   1.900       .  S
O230        C240   1.263       .  A
O231        V237   1.900       .  S
O231        C241   1.263       .  A
O232        V237   1.897       .  S
O232        C242   1.264       .  A
O233        V238   1.898       .  S
O233        C242   1.264       .  A
O234        V238   1.896       .  S
O234        C241   1.262       .  A
O235        V238   1.895       .  S
O235        C240   1.262       .  A
O236        V238   1.894       .  S
O236        C239   1.264       .  A
V237        V238   2.088       .  T
C239        C930   1.473       .  S
C240        C262   1.463       .  S
C242        C750   1.475       .  S
C243        C244   1.541       .  S
C243        C249   1.526       .  S
C243        C247   1.534       .  S
C243        C721   1.528       .  S
C244        H251   1.082       .  S
C244        C245   1.368       .  D
C245       C1050   1.483       .  S
C245        C246   1.541       .  S
C246        C250   1.538       .  S
C246        C248   1.547       .  S
C246        H252   1.108       .  S
C247        H253   1.084       .  S
C247        C248   1.372       .  D
C248        C970   1.495       .  S
C249        H254   1.088       .  S
C249        C250   1.360       .  D
C250        C302   1.464       .  S
C255        C256   1.543       .  S
C255        C261   1.529       .  S
C255        C259   1.534       .  S
C255        C730   1.527       .  S
C256        H263   1.080       .  S
C256        C257   1.372       .  D
C257        C710   1.488       .  S
C257        C258   1.544       .  S
C258        C262   1.534       .  S
C258        C260   1.537       .  S
C258        H264   1.110       .  S
C259        H265   1.087       .  S
C259        C260   1.365       .  D
C260        C690   1.472       .  S
C261        H266   1.088       .  S
C261        C262   1.360       .  D
C267        C268   1.536       .  S
C267        C273   1.526       .  S
C267        C271   1.540       .  S
C267        C661   1.525       .  S
C268        H275   1.086       .  S
C268        C269   1.367       .  D
C269       C1310   1.478       .  S
C269        C270   1.539       .  S
C270        C274   1.536       .  S
C270        C272   1.544       .  S
C270        H276   1.110       .  S
C271        H277   1.080       .  S
C271        C272   1.372       .  D
C272       C1210   1.487       .  S
C273        H278   1.088       .  S
C273        C274   1.357       .  D
C274        C303   1.460       .  S
C279        C280   1.537       .  S
C279        C285   1.531       .  S
C279        C283   1.530       .  S
C279        C670   1.527       .  S
C280        H287   1.085       .  S
C280        C281   1.373       .  D
C281        C641   1.488       .  S
C281        C282   1.545       .  S
C282        C286   1.536       .  S
C282        C284   1.543       .  S
C282        H288   1.107       .  S
C283        H289   1.086       .  S
C283        C284   1.369       .  D
C284        C621   1.487       .  S
C285        H290   1.082       .  S
C285        C286   1.359       .  D
O291        V299   1.904       .  S
O291        C301   1.266       .  A
O292        V299   1.900       .  S
O292        C302   1.263       .  A
O293        V299   1.897       .  S
O293        C303   1.263       .  A
O294        V299   1.900       .  S
O294        C304   1.265       .  A
O295        V300   1.895       .  S
O295        C304   1.264       .  A
O296        V300   1.896       .  S
O296        C303   1.262       .  A
O297        V300   1.897       .  S
O297        C302   1.263       .  A
O298        V300   1.899       .  S
O298        C301   1.265       .  A
V299        V300   2.087       .  T
C301        C821   1.480       .  S
C304        C741   1.475       .  S
O305        V313   1.902       .  S
O305        C315   1.265       .  A
O306        V313   1.901       .  S
O306        C316   1.263       .  A
O307        V313   1.901       .  S
O307        C317   1.264       .  A
O308        V313   1.904       .  S
O308        C318   1.266       .  A
O309        V314   1.894       .  S
O309        C318   1.264   1_655  A
O310        V314   1.893       .  S
O310        C317   1.261   1_655  A
O311        V314   1.897       .  S
O311        C316   1.263   1_655  A
O312        V314   1.900       .  S
O312        C315   1.265   1_655  A
V313        V314   2.088   1_455  T
C315        C590   1.479       .  S
C316        C338   1.464       .  S
C317        C414   1.462       .  S
C318        C601   1.478       .  S
C319        C320   1.533   1_655  S
C319        C325   1.531       .  S
C319        C323   1.545       .  S
C319        C570   1.531       .  S
C320        H327   1.086       .  S
C320        C321   1.364       .  D
C321        C781   1.473       .  S
C321        C322   1.537   1_455  S
C322        C326   1.534       .  S
C322        C324   1.546       .  S
C322        H328   1.109       .  S
C323        H329   1.079       .  S
C323        C324   1.375       .  D
C324        C850   1.497       .  S
C325        H330   1.087       .  S
C325        C326   1.361       .  D
C326        C354   1.462       .  S
C331        C332   1.544       .  S
C331        C337   1.525   1_655  S
C331        C335   1.538   1_655  S
C331        C561   1.530       .  S
C332        H339   1.083       .  S
C332        C333   1.365       .  D
C333       C1330   1.477       .  S
C333        C334   1.536   1_655  S
C334        C338   1.538       .  S
C334        C336   1.546       .  S
C334        H340   1.108       .  S
C335        H341   1.084       .  S
C335        C336   1.376       .  D
C336       C1001   1.496       .  S
C337        H342   1.088       .  S
C337        C338   1.360       .  D
O343        V351   1.887       .  S
O343        C353   1.262       .  A
O344        V351   1.894       .  S
O344        C354   1.261       .  A
O345        V351   1.902       .  S
O345        C355   1.265       .  A
O346        V351   1.903       .  S
O346        C356   1.266       .  A
O347        V352   1.897       .  S
O347        C356   1.264   1_455  A
O348        V352   1.897       .  S
O348        C355   1.262   1_455  A
O349        V352   1.899       .  S
O349        C354   1.264   1_455  A
O350        V352   1.902       .  S
O350        C353   1.265   1_455  A
V351        V352   2.088   1_655  T
C353        C541   1.471       .  S
C355        C376   1.466       .  S
C356        C610   1.477       .  S
C357        C358   1.539       .  S
C357        C363   1.532   1_455  S
C357        C361   1.534   1_455  S
C357        C530   1.529   1_455  S
C358        H365   1.082       .  S
C358        C359   1.368       .  D
C359        C981   1.485       .  S
C359        C360   1.542       .  S
C360        C364   1.529   1_455  S
C360        C362   1.545   1_455  S
C360        H366   1.108       .  S
C361        H367   1.084       .  S
C361        C362   1.372       .  D
C362       C1350   1.489       .  S
C363        H368   1.087       .  S
C363        C364   1.362       .  D
C364        C392   1.463       .  S
C369        C370   1.541       .  S
C369        C375   1.530       .  S
C369        C373   1.533   1_655  S
C369        C521   1.530       .  S
C370        H377   1.081       .  S
C370        C371   1.371       .  D
C371        C630   1.485       .  S
C371        C372   1.541       .  S
C372        C376   1.535       .  S
C372        C374   1.546   1_655  S
C372        H378   1.108       .  S
C373        H379   1.085       .  S
C373        C374   1.370       .  D
C374        C701   1.492       .  S
C375        H380   1.087       .  S
C375        C376   1.362       .  D
O381        V389   1.899       .  S
O381        C391   1.265       .  A
O382        V389   1.899       .  S
O382        C392   1.263       .  A
O383        V389   1.897       .  S
O383        C393   1.262       .  A
O384        V389   1.891       .  S
O384        C394   1.263       .  A
O385        V390   1.897       .  S
O385        C394   1.264   1_455  A
O386        V390   1.898       .  S
O386        C393   1.263   1_455  A
O387        V390   1.894       .  S
O387        C392   1.262   1_455  A
O388        V390   1.897       .  S
O388        C391   1.264   1_455  A
V389        V390   2.088   1_655  T
C391        C501   1.476       .  S
C393        C438   1.463       .  S
C394        C550   1.470       .  S
C395        C396   1.539   1_455  S
C395        C401   1.532       .  S
C395        C399   1.532       .  S
C395        C481   1.530       .  S
C396        H403   1.085       .  S
C396        C397   1.372       .  D
C397        C870   1.493       .  S
C397        C398   1.545   1_655  S
C398        C402   1.532       .  S
C398        C400   1.546       .  S
C398        H404   1.107       .  S
C399        H405   1.086       .  S
C399        C400   1.372       .  D
C400        C761   1.489       .  S
C401        H406   1.083       .  S
C401        C402   1.357       .  D
C402        C455   1.461       .  S
C407        C408   1.533       .  S
C407        C413   1.528       .  S
C407        C411   1.543   1_455  S
C407        C490   1.527       .  S
C408        H415   1.086       .  S
C408        C409   1.366       .  D
C409       C1110   1.470       .  S
C409        C410   1.539       .  S
C410        C414   1.535       .  S
C410        C412   1.544   1_455  S
C410        H416   1.109       .  S
C411        H417   1.079       .  S
C411        C412   1.372       .  D
C412       C1170   1.494       .  S
C413        H418   1.088       .  S
C413        C414   1.359       .  D
C419        C420   1.541       .  S
C419        C425   1.524       .  S
C419        C423   1.535   1_455  S
C419        C470   1.526       .  S
C420        H427   1.080       .  S
C420        C421   1.373       .  D
C421        C681   1.491       .  S
C421        C422   1.546       .  S
C422        C426   1.536       .  S
C422        C424   1.541   1_455  S
C422        H428   1.109       .  S
C423        H429   1.086       .  S
C423        C424   1.368       .  D
C424        C650   1.482       .  S
C425        H430   1.088       .  S
C425        C426   1.358       .  D
C426        C454   1.463       .  S
C431        C432   1.539       .  S
C431        C437   1.524       .  S
C431        C435   1.536   1_655  S
C431        C461   1.527       .  S
C432        H439   1.080       .  S
C432        C433   1.370       .  D
C433       C1181   1.489       .  S
C433        C434   1.544       .  S
C434        C438   1.536       .  S
C434        C436   1.541   1_655  S
C434        H440   1.108       .  S
C435        H441   1.086       .  S
C435        C436   1.369       .  D
C436       C1090   1.484       .  S
C437        H442   1.087       .  S
C437        C438   1.361       .  D
O443        V451   1.903       .  S
O443        C453   1.266   1_655  A
O444        V451   1.899       .  S
O444        C454   1.263   1_655  A
O445        V451   1.898       .  S
O445        C455   1.263   1_655  A
O446        V451   1.902       .  S
O446        C456   1.265   1_655  A
O447        V452   1.894       .  S
O447        C456   1.264       .  A
O448        V452   1.894       .  S
O448        C455   1.262       .  A
O449        V452   1.896       .  S
O449        C454   1.262       .  A
O450        V452   1.899       .  S
O450        C453   1.265       .  A
V451        V452   2.087   1_655  T
C453        C581   1.480       .  S
C456        C510   1.476       .  S
C457        C458   1.401   1_455  A
C457        C462   1.396       .  A
C457        H467   1.083       .  S
C458        C463   1.478       .  S
C458        C459   1.401       .  A
C459        C460   1.397       .  A
C459        H464   1.083       .  S
C460        C461   1.411       .  A
C460        H465   1.077       .  S
C461        C462   1.410   1_655  A
C462        H466   1.083       .  S
C463        C468   1.402   1_655  A
C463        C472   1.401       .  A
C468        C469   1.398       .  A
C468        H473   1.083       .  S
C469        C470   1.410       .  A
C469        H474   1.077       .  S
C470        C471   1.410   1_455  A
C471        C472   1.395       .  A
C471        H475   1.083       .  S
C472        H476   1.083       .  S
C477        C478   1.402       .  A
C477        C482   1.395       .  A
C477        H487   1.083       .  S
C478        C483   1.481       .  S
C478        C479   1.403       .  A
C479        C480   1.398       .  A
C479        H484   1.084       .  S
C480        C481   1.409       .  A
C480        H485   1.082       .  S
C481        C482   1.413       .  A
C482        H486   1.078       .  S
C483        C488   1.402       .  A
C483        C492   1.402   1_455  A
C488        C489   1.396       .  A
C488        H493   1.083       .  S
C489        C490   1.409       .  A
C489        H494   1.083       .  S
C490        C491   1.411   1_455  A
C491        C492   1.397       .  A
C491        H495   1.076       .  S
C492        H496   1.083       .  S
C497        C498   1.408   1_455  A
C497        C502   1.396       .  A
C497        H507   1.082       .  S
C498        C503   1.487       .  S
C498        C499   1.406       .  A
C499        C500   1.397       .  A
C499        H504   1.083       .  S
C500        C501   1.404       .  A
C500        H505   1.083       .  S
C501        C502   1.403   1_655  A
C502        H506   1.083       .  S
C503        C508   1.406   1_655  A
C503        C512   1.408       .  A
C508        C509   1.395       .  A
C508        H513   1.083       .  S
C509        C510   1.404       .  A
C509        H514   1.083       .  S
C510        C511   1.404   1_455  A
C511        C512   1.399       .  A
C511        H515   1.083       .  S
C512        H516   1.082       .  S
C517        C518   1.404       .  A
C517        C522   1.400       .  A
C517        H527   1.083       .  S
C518        C523   1.484       .  S
C518        C519   1.402   1_655  A
C519        C520   1.396       .  A
C519        H524   1.083       .  S
C520        C521   1.409   1_455  A
C520        H525   1.083       .  S
C521        C522   1.411       .  A
C522        H526   1.077       .  S
C523        C528   1.403       .  A
C523        C532   1.403   1_655  A
C528        C529   1.398       .  A
C528        H533   1.083       .  S
C529        C530   1.410       .  A
C529        H534   1.083       .  S
C530        C531   1.411   1_655  A
C531        C532   1.398       .  A
C531        H535   1.077       .  S
C532        H536   1.083       .  S
C537        C538   1.407   1_455  A
C537        C542   1.397       .  A
C537        H547   1.082       .  S
C538        C543   1.483       .  S
C538        C539   1.405       .  A
C539        C540   1.392       .  A
C539        H544   1.083       .  S
C540        C541   1.404       .  A
C540        H545   1.083       .  S
C541        C542   1.402   1_655  A
C542        H546   1.083       .  S
C543        C548   1.406   1_655  A
C543        C552   1.406       .  A
C548        C549   1.396       .  A
C548        H553   1.083       .  S
C549        C550   1.403   1_455  A
C549        H554   1.083       .  S
C550        C551   1.402       .  A
C551        C552   1.393       .  A
C551        H555   1.083       .  S
C552        H556   1.082       .  S
C557        C558   1.405       .  A
C557        C562   1.396       .  A
C557        H567   1.083       .  S
C558        C563   1.492       .  S
C558        C559   1.406   1_655  A
C559        C560   1.400       .  A
C559        H564   1.082       .  S
C560        C561   1.410   1_455  A
C560        H565   1.083       .  S
C561        C562   1.409       .  A
C562        H566   1.077       .  S
C563        C568   1.405   1_655  A
C563        C572   1.406       .  A
C568        C569   1.399       .  A
C568        H573   1.083       .  S
C569        C570   1.411   1_455  A
C569        H574   1.083       .  S
C570        C571   1.409       .  A
C571        C572   1.398       .  A
C571        H575   1.077       .  S
C572        H576   1.083       .  S
C577        C578   1.408   1_655  A
C577        C582   1.398       .  A
C577        H587   1.082       .  S
C578        C583   1.490       .  S
C578        C579   1.407       .  A
C579        C580   1.398       .  A
C579        H584   1.083       .  S
C580        C581   1.405       .  A
C580        H585   1.083       .  S
C581        C582   1.404   1_455  A
C582        H586   1.083       .  S
C583        C588   1.407   1_455  A
C583        C592   1.408       .  A
C588        C589   1.397       .  A
C588        H593   1.082       .  S
C589        C590   1.404   1_655  A
C589        H594   1.083       .  S
C590        C591   1.405       .  A
C591        C592   1.400       .  A
C591        H595   1.083       .  S
C592        H596   1.083       .  S
C597        C598   1.406   1_655  A
C597        C602   1.396       .  A
C597        H607   1.082       .  S
C598        C603   1.489   1_455  S
C598        C599   1.408       .  A
C599        C600   1.400       .  A
C599        H604   1.083       .  S
C600        C601   1.404       .  A
C600        H605   1.083       .  S
C601        C602   1.404   1_455  A
C602        H606   1.083       .  S
C603        C608   1.408       .  A
C603        C612   1.407   1_655  A
C608        C609   1.398       .  A
C608        H613   1.083       .  S
C609        C610   1.403       .  A
C609        H614   1.083       .  S
C610        C611   1.405   1_655  A
C611        C612   1.398       .  A
C611        H615   1.083       .  S
C612        H616   1.082       .  S
C617        C618   1.403       .  A
C617        C622   1.402       .  A
C617        H627   1.083       .  S
C618        C623   1.473       .  S
C618        C619   1.400       .  A
C619        C620   1.391       .  A
C619        H624   1.084       .  S
C620        C621   1.407       .  A
C620        H625   1.082       .  S
C621        C622   1.407       .  A
C622        H626   1.082       .  S
C623        C628   1.403       .  A
C623        C632   1.401       .  A
C628        C629   1.401       .  A
C628        H633   1.083       .  S
C629        C630   1.407       .  A
C629        H634   1.082       .  S
C630        C631   1.405       .  A
C631        C632   1.392       .  A
C631        H635   1.082       .  S
C632        H636   1.083       .  S
C637        C638   1.400       .  A
C637        C642   1.393       .  A
C637        H647   1.083       .  S
C638        C643   1.472       .  S
C638        C639   1.401       .  A
C639        C640   1.400   1_545  A
C639        H644   1.083       .  S
C640        C641   1.408       .  A
C640        H645   1.081       .  S
C641        C642   1.408   1_565  A
C642        H646   1.082   1_545  S
C643        C648   1.403       .  A
C643        C652   1.401       .  A
C648        C649   1.400       .  A
C648        H653   1.083       .  S
C649        C650   1.406       .  A
C649        H654   1.083       .  S
C650        C651   1.405       .  A
C651        C652   1.394       .  A
C651        H655   1.083       .  S
C652        H656   1.083       .  S
C657        C658   1.403       .  A
C657        C662   1.398       .  A
C657        H667   1.083       .  S
C658        C663   1.482       .  S
C658        C659   1.403       .  A
C659        C660   1.394       .  A
C659        H664   1.083       .  S
C660        C661   1.409       .  A
C660        H665   1.084       .  S
C661        C662   1.410       .  A
C662        H666   1.076       .  S
C663        C668   1.403       .  A
C663        C672   1.403       .  A
C668        C669   1.397       .  A
C668        H673   1.083       .  S
C669        C670   1.408       .  A
C669        H674   1.083       .  S
C670        C671   1.412       .  A
C671        C672   1.395       .  A
C671        H675   1.078       .  S
C672        H676   1.083       .  S
C677        C678   1.408       .  A
C677        C682   1.402       .  A
C677        H687   1.082       .  S
C678        C683   1.490       .  S
C678        C679   1.405       .  A
C679        C680   1.393       .  A
C679        H684   1.082       .  S
C680        C681   1.406       .  A
C680        H685   1.082       .  S
C681        C682   1.406       .  A
C682        H686   1.082       .  S
C683        C688   1.409       .  A
C683        C692   1.408   1_545  A
C688        C689   1.401   1_545  A
C688        H693   1.082       .  S
C689        C690   1.400       .  A
C689        H694   1.083       .  S
C690        C691   1.400       .  A
C691        C692   1.394       .  A
C691        H695   1.084       .  S
C692        H696   1.082       .  S
C697        C698   1.402       .  A
C697        C702   1.401       .  A
C697        H707   1.083       .  S
C698        C703   1.475       .  S
C698        C699   1.400       .  A
C699        C700   1.394       .  A
C699        H704   1.084       .  S
C700        C701   1.409       .  A
C700        H705   1.081       .  S
C701        C702   1.408       .  A
C702        H706   1.081       .  S
C703        C708   1.402       .  A
C703        C712   1.402       .  A
C708        C709   1.399       .  A
C708        H713   1.083       .  S
C709        C710   1.407       .  A
C709        H714   1.082       .  S
C710        C711   1.407       .  A
C711        C712   1.396       .  A
C711        H715   1.082       .  S
C712        H716   1.083       .  S
C717        C718   1.403       .  A
C717        C722   1.399       .  A
C717        H727   1.083       .  S
C718        C723   1.483       .  S
C718        C719   1.402       .  A
C719        C720   1.395       .  A
C719        H724   1.083       .  S
C720        C721   1.409       .  A
C720        H725   1.083       .  S
C721        C722   1.411       .  A
C722        H726   1.077       .  S
C723        C728   1.402       .  A
C723        C732   1.404       .  A
C728        C729   1.396       .  A
C728        H733   1.083       .  S
C729        C730   1.410       .  A
C729        H734   1.083       .  S
C730        C731   1.410       .  A
C731        C732   1.398       .  A
C731        H735   1.077       .  S
C732        H736   1.083       .  S
C737        C738   1.407       .  A
C737        C742   1.398       .  A
C737        H747   1.083       .  S
C738        C743   1.487       .  S
C738        C739   1.406       .  A
C739        C740   1.395       .  A
C739        H744   1.082       .  S
C740        C741   1.403       .  A
C740        H745   1.083       .  S
C741        C742   1.404       .  A
C742        H746   1.083       .  S
C743        C748   1.407       .  A
C743        C752   1.407       .  A
C748        C749   1.397       .  A
C748        H753   1.082       .  S
C749        C750   1.404       .  A
C749        H754   1.083       .  S
C750        C751   1.403       .  A
C751        C752   1.395       .  A
C751        H755   1.083       .  S
C752        H756   1.083       .  S
C757        C758   1.404       .  A
C757        C762   1.402       .  A
C757        H767   1.083       .  S
C758        C763   1.479       .  S
C758        C759   1.402       .  A
C759        C760   1.394       .  A
C759        H764   1.083       .  S
C760        C761   1.407       .  A
C760        H765   1.082       .  S
C761        C762   1.407       .  A
C762        H766   1.082       .  S
C763        C768   1.403   1_545  A
C763        C772   1.401       .  A
C768        C769   1.402       .  A
C768        H773   1.083       .  S
C769        C770   1.407       .  A
C769        H774   1.078       .  S
C770        C771   1.407   1_565  A
C771        C772   1.394       .  A
C771        H775   1.082       .  S
C772        H776   1.083       .  S
C777        C778   1.408       .  A
C777        C782   1.397       .  A
C777        H787   1.082       .  S
C778        C783   1.488       .  S
C778        C779   1.408       .  A
C779        C780   1.396       .  A
C779        H784   1.082       .  S
C780        C781   1.399       .  A
C780        H785   1.081       .  S
C781        C782   1.401       .  A
C782        H786   1.083       .  S
C783        C788   1.404       .  A
C783        C792   1.406       .  A
C788        C789   1.395       .  A
C788        H793   1.082       .  S
C789        C790   1.408       .  A
C789        H794   1.081       .  S
C790        C791   1.406       .  A
C791        C792   1.399       .  A
C791        H795   1.077       .  S
C792        H796   1.083       .  S
C797        C798   1.403       .  A
C797        C802   1.397       .  A
C797        H807   1.083       .  S
C798        C803   1.486       .  S
C798        C799   1.404       .  A
C799        C800   1.400       .  A
C799        H804   1.083       .  S
C800        C801   1.411       .  A
C800        H805   1.083       .  S
C801        C802   1.411       .  A
C802        H806   1.076       .  S
C803        C808   1.404       .  A
C803        C812   1.403       .  A
C808        C809   1.401       .  A
C808        H813   1.083       .  S
C809        C810   1.412       .  A
C809        H814   1.079       .  S
C810        C811   1.408       .  A
C811        C812   1.396       .  A
C811        H815   1.083       .  S
C812        H816   1.083       .  S
C817        C818   1.407       .  A
C817        C822   1.397       .  A
C817        H827   1.083       .  S
C818        C823   1.491       .  S
C818        C819   1.408       .  A
C819        C820   1.400       .  A
C819        H824   1.082       .  S
C820        C821   1.405       .  A
C820        H825   1.083       .  S
C821        C822   1.404       .  A
C822        H826   1.083       .  S
C823        C828   1.407       .  A
C823        C832   1.408       .  A
C828        C829   1.397       .  A
C828        H833   1.082       .  S
C829        C830   1.404       .  A
C829        H834   1.083       .  S
C830        C831   1.404       .  A
C831        C832   1.400       .  A
C831        H835   1.083       .  S
C832        H836   1.082       .  S
C837        C838   1.405       .  A
C837        C842   1.404       .  A
C837        H847   1.083       .  S
C838        C843   1.478       .  S
C838        C839   1.401       .  A
C839        C840   1.393       .  A
C839        H844   1.083       .  S
C840        C841   1.405       .  A
C840        H845   1.083       .  S
C841        C842   1.407       .  A
C842        H846   1.083       .  S
C843        C848   1.401       .  A
C843        C852   1.402       .  A
C848        C849   1.396       .  A
C848        H853   1.083       .  S
C849        C850   1.409       .  A
C849        H854   1.081       .  S
C850        C851   1.410       .  A
C851        C852   1.402       .  A
C851        H855   1.079       .  S
C852        H856   1.083       .  S
C857        C858   1.404       .  A
C857        C862   1.402       .  A
C857        H867   1.083       .  S
C858        C863   1.481       .  S
C858        C859   1.401       .  A
C859        C860   1.396       .  A
C859        H864   1.083       .  S
C860        C861   1.410   1_545  A
C860        H865   1.081       .  S
C861        C862   1.409   1_565  A
C862        H866   1.081   1_545  S
C863        C868   1.402       .  A
C863        C872   1.403       .  A
C868        C869   1.399       .  A
C868        H873   1.083       .  S
C869        C870   1.408       .  A
C869        H874   1.081       .  S
C870        C871   1.409       .  A
C871        C872   1.398       .  A
C871        H875   1.082       .  S
C872        H876   1.083       .  S
C877        C878   1.408       .  A
C877        C882   1.400       .  A
C877        H887   1.082       .  S
C878        C883   1.498       .  S
C878        C879   1.407       .  A
C879        C880   1.398       .  A
C879        H884   1.082       .  S
C880        C881   1.409       .  A
C880        H885   1.083       .  S
C881        C882   1.409       .  A
C882        H886   1.077       .  S
C883        C888   1.408       .  A
C883        C892   1.407       .  A
C888        C889   1.400       .  A
C888        H893   1.082       .  S
C889        C890   1.409       .  A
C889        H894   1.079       .  S
C890        C891   1.409       .  A
C891        C892   1.399       .  A
C891        H895   1.083       .  S
C892        H896   1.082       .  S
C897        C898   1.406       .  A
C897        C902   1.397       .  A
C897        H907   1.083       .  S
C898        C903   1.489       .  S
C898        C899   1.408       .  A
C899        C900   1.399       .  A
C899        H904   1.082       .  S
C900        C901   1.403       .  A
C900        H905   1.083       .  S
C901        C902   1.405       .  A
C902        H906   1.083       .  S
C903        C908   1.408       .  A
C903        C912   1.407       .  A
C908        C909   1.398       .  A
C908        H913   1.082       .  S
C909        C910   1.403       .  A
C909        H914   1.083       .  S
C910        C911   1.404       .  A
C911        C912   1.398       .  A
C911        H915   1.083       .  S
C912        H916   1.083       .  S
C917        C918   1.406       .  A
C917        C922   1.396       .  A
C917        H927   1.083       .  S
C918        C923   1.480       .  S
C918        C919   1.406       .  A
C919        C920   1.395       .  A
C919        H924   1.083       .  S
C920        C921   1.402       .  A
C920        H925   1.083       .  S
C921        C922   1.402       .  A
C922        H926   1.083       .  S
C923        C928   1.405       .  A
C923        C932   1.405       .  A
C928        C929   1.394       .  A
C928        H933   1.083       .  S
C929        C930   1.403       .  A
C929        H934   1.083       .  S
C930        C931   1.405       .  A
C931        C932   1.396       .  A
C931        H935   1.083       .  S
C932        H936   1.083       .  S
C937        C938   1.407       .  A
C937        C942   1.402       .  A
C937        H947   1.083       .  S
C938        C943   1.486       .  S
C938        C939   1.405       .  A
C939        C940   1.392       .  A
C939        H944   1.083       .  S
C940        C941   1.403       .  A
C940        H945   1.083       .  S
C941        C942   1.405       .  A
C942        H946   1.083       .  S
C943        C948   1.408       .  A
C943        C952   1.407       .  A
C948        C949   1.401       .  A
C948        H953   1.083       .  S
C949        C950   1.401       .  A
C949        H954   1.083       .  S
C950        C951   1.398       .  A
C951        C952   1.394       .  A
C951        H955   1.083       .  S
C952        H956   1.083       .  S
C957        C958   1.403       .  A
C957        C962   1.401       .  A
C957        H967   1.083       .  S
C958        C963   1.476       .  S
C958        C959   1.402       .  A
C959        C960   1.395       .  A
C959        H964   1.083       .  S
C960        C961   1.406       .  A
C960        H965   1.083       .  S
C961        C962   1.407       .  A
C962        H966   1.082       .  S
C963        C968   1.403       .  A
C963        C972   1.399       .  A
C968        C969   1.403       .  A
C968        H973   1.083       .  S
C969        C970   1.409       .  A
C969        H974   1.081       .  S
C970        C971   1.409       .  A
C971        C972   1.393       .  A
C971        H975   1.081       .  S
C972        H976   1.084       .  S
C977        C978   1.401       .  A
C977        C982   1.399       .  A
C977        H987   1.084       .  S
C978        C983   1.473       .  S
C978        C979   1.402       .  A
C979        C980   1.395       .  A
C979        H984   1.083       .  S
C980        C981   1.406       .  A
C980        H985   1.083       .  S
C981        C982   1.405       .  A
C982        H986   1.077       .  S
C983        C988   1.401       .  A
C983        C992   1.400       .  A
C988        C989   1.401       .  A
C988        H993   1.083       .  S
C989        C990   1.409       .  A
C989        H994   1.081       .  S
C990        C991   1.408       .  A
C991        C992   1.394       .  A
C991        H995   1.081       .  S
C992        H996   1.084       .  S
C997        C998   1.401       .  A
C997       C1002   1.394       .  A
C997       H1007   1.084       .  S
C998       C1003   1.478       .  S
C998        C999   1.402       .  A
C999       C1000   1.402       .  A
C999       H1004   1.083       .  S
C1000      C1001   1.410       .  A
C1000      H1005   1.081       .  S
C1001      C1002   1.408       .  A
C1002      H1006   1.081       .  S
C1003      C1008   1.401       .  A
C1003      C1012   1.404       .  A
C1008      C1009   1.393       .  A
C1008      H1013   1.083       .  S
C1009      C1010   1.407       .  A
C1009      H1014   1.082       .  S
C1010      C1011   1.408       .  A
C1011      C1012   1.403       .  A
C1011      H1015   1.082       .  S
C1012      H1016   1.083       .  S
C1017      C1018   1.402       .  A
C1017      C1022   1.399       .  A
C1017      H1027   1.083       .  S
C1018      C1023   1.487   1_554  S
C1018      C1019   1.404   1_554  A
C1019      C1020   1.401       .  A
C1019      H1024   1.083       .  S
C1020      C1021   1.411   1_556  A
C1020      H1025   1.083       .  S
C1021      C1022   1.412       .  A
C1022      H1026   1.076       .  S
C1023      C1028   1.403   1_556  A
C1023      C1032   1.402       .  A
C1028      C1029   1.399       .  A
C1028      H1033   1.083       .  S
C1029      C1030   1.410   1_554  A
C1029      H1034   1.083       .  S
C1030      C1031   1.414       .  A
C1031      C1032   1.401       .  A
C1031      H1035   1.076       .  S
C1032      H1036   1.083       .  S
C1037      C1038   1.406       .  A
C1037      C1042   1.402       .  A
C1037      H1047   1.082       .  S
C1038      C1043   1.493       .  S
C1038      C1039   1.405       .  A
C1039      C1040   1.394       .  A
C1039      H1044   1.082       .  S
C1040      C1041   1.409       .  A
C1040      H1045   1.079       .  S
C1041      C1042   1.411       .  A
C1042      H1046   1.078       .  S
C1043      C1048   1.410       .  A
C1043      C1052   1.408       .  A
C1048      C1049   1.402   1_545  A
C1048      H1053   1.082   1_545  S
C1049      C1050   1.403       .  A
C1049      H1054   1.083       .  S
C1050      C1051   1.403   1_565  A
C1051      C1052   1.395       .  A
C1051      H1055   1.083       .  S
C1052      H1056   1.082       .  S
C1057      C1058   1.400       .  A
C1057      C1062   1.393   1_545  A
C1057      H1067   1.084       .  S
C1058      C1063   1.472       .  S
C1058      C1059   1.402       .  A
C1059      C1060   1.401   1_545  A
C1059      H1064   1.083       .  S
C1060      C1061   1.408       .  A
C1060      H1065   1.081       .  S
C1061      C1062   1.408       .  A
C1062      H1066   1.082       .  S
C1063      C1068   1.401       .  A
C1063      C1072   1.402       .  A
C1068      C1069   1.394       .  A
C1068      H1073   1.084       .  S
C1069      C1070   1.406       .  A
C1069      H1074   1.083       .  S
C1070      C1071   1.406       .  A
C1071      C1072   1.400       .  A
C1071      H1075   1.081       .  S
C1072      H1076   1.083       .  S
C1077      C1078   1.399       .  A
C1077      C1082   1.391       .  A
C1077      H1087   1.084       .  S
C1078      C1083   1.474       .  S
C1078      C1079   1.402       .  A
C1079      C1080   1.401       .  A
C1079      H1084   1.083       .  S
C1080      C1081   1.408       .  A
C1080      H1085   1.078       .  S
C1081      C1082   1.411       .  A
C1082      H1086   1.081       .  S
C1083      C1088   1.402       .  A
C1083      C1092   1.403       .  A
C1088      C1089   1.392       .  A
C1088      H1093   1.083       .  S
C1089      C1090   1.405       .  A
C1089      H1094   1.082       .  S
C1090      C1091   1.407       .  A
C1091      C1092   1.400       .  A
C1091      H1095   1.082       .  S
C1092      H1096   1.083       .  S
C1097      C1098   1.406       .  A
C1097      C1102   1.394       .  A
C1097      H1107   1.082       .  S
C1098      C1103   1.489       .  S
C1098      C1099   1.407       .  A
C1099      C1100   1.397       .  A
C1099      H1104   1.082       .  S
C1100      C1101   1.404       .  A
C1100      H1105   1.079       .  S
C1101      C1102   1.405       .  A
C1102      H1106   1.082       .  S
C1103      C1108   1.409       .  A
C1103      C1112   1.409       .  A
C1108      C1109   1.396       .  A
C1108      H1113   1.082       .  S
C1109      C1110   1.400       .  A
C1109      H1114   1.083       .  S
C1110      C1111   1.399       .  A
C1111      C1112   1.396       .  A
C1111      H1115   1.082       .  S
C1112      H1116   1.082       .  S
C1117      C1118   1.404       .  A
C1117      C1122   1.396       .  A
C1117      H1127   1.083       .  S
C1118      C1123   1.487       .  S
C1118      C1119   1.404   1_554  A
C1119      C1120   1.400       .  A
C1119      H1124   1.083       .  S
C1120      C1121   1.411       .  A
C1120      H1125   1.078       .  S
C1121      C1122   1.408   1_556  A
C1122      H1126   1.083       .  S
C1123      C1128   1.402       .  A
C1123      C1132   1.405   1_554  A
C1128      C1129   1.396       .  A
C1128      H1133   1.083       .  S
C1129      C1130   1.413       .  A
C1129      H1134   1.076       .  S
C1130      C1131   1.410   1_554  A
C1131      C1132   1.401       .  A
C1131      H1135   1.083       .  S
C1132      H1136   1.083       .  S
C1137      C1138   1.406   1_554  A
C1137      C1142   1.395       .  A
C1137      H1147   1.083       .  S
C1138      C1143   1.486       .  S
C1138      C1139   1.407       .  A
C1139      C1140   1.397       .  A
C1139      H1144   1.082       .  S
C1140      C1141   1.404       .  A
C1140      H1145   1.083       .  S
C1141      C1142   1.403   1_556  A
C1142      H1146   1.083       .  S
C1143      C1148   1.407   1_556  A
C1143      C1152   1.407       .  A
C1148      C1149   1.395       .  A
C1148      H1153   1.082       .  S
C1149      C1150   1.402   1_554  A
C1149      H1154   1.083       .  S
C1150      C1151   1.404       .  A
C1151      C1152   1.398       .  A
C1151      H1155   1.083       .  S
C1152      H1156   1.083       .  S
C1157      C1158   1.410       .  A
C1157      C1162   1.397       .  A
C1157      H1167   1.082       .  S
C1158      C1163   1.493       .  S
C1158      C1159   1.409       .  A
C1159      C1160   1.399       .  A
C1159      H1164   1.082       .  S
C1160      C1161   1.402       .  A
C1160      H1165   1.084       .  S
C1161      C1162   1.400       .  A
C1162      H1166   1.083       .  S
C1163      C1168   1.405       .  A
C1163      C1172   1.409       .  A
C1168      C1169   1.394       .  A
C1168      H1173   1.082       .  S
C1169      C1170   1.407       .  A
C1169      H1174   1.082       .  S
C1170      C1171   1.407       .  A
C1171      C1172   1.402       .  A
C1171      H1175   1.080       .  S
C1172      H1176   1.082       .  S
C1177      C1178   1.406       .  A
C1177      C1182   1.391       .  A
C1177      H1187   1.082       .  S
C1178      C1183   1.493       .  S
C1178      C1179   1.410       .  A
C1179      C1180   1.402       .  A
C1179      H1184   1.082       .  S
C1180      C1181   1.405       .  A
C1180      H1185   1.082       .  S
C1181      C1182   1.406       .  A
C1182      H1186   1.082       .  S
C1183      C1188   1.409       .  A
C1183      C1192   1.410       .  A
C1188      C1189   1.394       .  A
C1188      H1193   1.082       .  S
C1189      C1190   1.399       .  A
C1189      H1194   1.084       .  S
C1190      C1191   1.400       .  A
C1191      C1192   1.400       .  A
C1191      H1195   1.083       .  S
C1192      H1196   1.082       .  S
C1197      C1198   1.401       .  A
C1197      C1202   1.400       .  A
C1197      H1207   1.083       .  S
C1198      C1203   1.475       .  S
C1198      C1199   1.400       .  A
C1199      C1200   1.393       .  A
C1199      H1204   1.084       .  S
C1200      C1201   1.409       .  A
C1200      H1205   1.081       .  S
C1201      C1202   1.408       .  A
C1202      H1206   1.077       .  S
C1203      C1208   1.403       .  A
C1203      C1212   1.401       .  A
C1208      C1209   1.402   1_545  A
C1208      H1213   1.083       .  S
C1209      C1210   1.407       .  A
C1209      H1214   1.082       .  S
C1210      C1211   1.407       .  A
C1211      C1212   1.392   1_565  A
C1211      H1215   1.082       .  S
C1212      H1216   1.084       .  S
C1217      C1218   1.400       .  A
C1217      C1222   1.399       .  A
C1217      H1227   1.083       .  S
C1218      C1223   1.473       .  S
C1218      C1219   1.401       .  A
C1219      C1220   1.394       .  A
C1219      H1224   1.084       .  S
C1220      C1221   1.408       .  A
C1220      H1225   1.082       .  S
C1221      C1222   1.408       .  A
C1222      H1226   1.077       .  S
C1223      C1228   1.400       .  A
C1223      C1232   1.403       .  A
C1228      C1229   1.392   1_545  A
C1228      H1233   1.084       .  S
C1229      C1230   1.406       .  A
C1229      H1234   1.082       .  S
C1230      C1231   1.408       .  A
C1231      C1232   1.402   1_565  A
C1231      H1235   1.082       .  S
C1232      H1236   1.083       .  S
C1237      C1238   1.404       .  A
C1237      C1242   1.399       .  A
C1237      H1247   1.083       .  S
C1238      C1243   1.486       .  S
C1238      C1239   1.403   1_556  A
C1239      C1240   1.397       .  A
C1239      H1244   1.083       .  S
C1240      C1241   1.411   1_554  A
C1240      H1245   1.076       .  S
C1241      C1242   1.410       .  A
C1242      H1246   1.083       .  S
C1243      C1248   1.405       .  A
C1243      C1252   1.403   1_556  A
C1248      C1249   1.401       .  A
C1248      H1253   1.083       .  S
C1249      C1250   1.409       .  A
C1249      H1254   1.078       .  S
C1250      C1251   1.410   1_556  A
C1251      C1252   1.395       .  A
C1251      H1255   1.083       .  S
C1252      H1256   1.083       .  S
C1257      C1258   1.404       .  A
C1257      C1262   1.394       .  A
C1257      H1267   1.083       .  S
C1258      C1263   1.480       .  S
C1258      C1259   1.406   1_556  A
C1259      C1260   1.396       .  A
C1259      H1264   1.083       .  S
C1260      C1261   1.404   1_554  A
C1260      H1265   1.083       .  S
C1261      C1262   1.403       .  A
C1262      H1266   1.083       .  S
C1263      C1268   1.405   1_556  A
C1263      C1272   1.405       .  A
C1268      C1269   1.395       .  A
C1268      H1273   1.083       .  S
C1269      C1270   1.403   1_554  A
C1269      H1274   1.083       .  S
C1270      C1271   1.403       .  A
C1271      C1272   1.395       .  A
C1271      H1275   1.083       .  S
C1272      H1276   1.083       .  S
C1277      C1278   1.407       .  A
C1277      C1282   1.393       .  A
C1277      H1287   1.081       .  S
C1278      C1283   1.497       .  S
C1278      C1279   1.409       .  A
C1279      C1280   1.402       .  A
C1279      H1284   1.082       .  S
C1280      C1281   1.406       .  A
C1280      H1285   1.079       .  S
C1281      C1282   1.407       .  A
C1282      H1286   1.081       .  S
C1283      C1288   1.410       .  A
C1283      C1292   1.411       .  A
C1288      C1289   1.399       .  A
C1288      H1293   1.081       .  S
C1289      C1290   1.401       .  A
C1289      H1294   1.083       .  S
C1290      C1291   1.400       .  A
C1291      C1292   1.397       .  A
C1291      H1295   1.083       .  S
C1292      H1296   1.081       .  S
C1297      C1298   1.406       .  A
C1297      C1302   1.399       .  A
C1297      H1307   1.082       .  S
C1298      C1303   1.492       .  S
C1298      C1299   1.406       .  A
C1299      C1300   1.396       .  A
C1299      H1304   1.082       .  S
C1300      C1301   1.409       .  A
C1300      H1305   1.080       .  S
C1301      C1302   1.407       .  A
C1302      H1306   1.078       .  S
C1303      C1308   1.409       .  A
C1303      C1312   1.409       .  A
C1308      C1309   1.398       .  A
C1308      H1313   1.082       .  S
C1309      C1310   1.401       .  A
C1309      H1314   1.083       .  S
C1310      C1311   1.402       .  A
C1311      C1312   1.397       .  A
C1311      H1315   1.083       .  S
C1312      H1316   1.082       .  S
C1317      C1318   1.406       .  A
C1317      C1322   1.400       .  A
C1317      H1327   1.082       .  S
C1318      C1323   1.491       .  S
C1318      C1319   1.406       .  A
C1319      C1320   1.396       .  A
C1319      H1324   1.082       .  S
C1320      C1321   1.406       .  A
C1320      H1325   1.081       .  S
C1321      C1322   1.407       .  A
C1322      H1326   1.079       .  S
C1323      C1328   1.409       .  A
C1323      C1332   1.408       .  A
C1328      C1329   1.399       .  A
C1328      H1333   1.082       .  S
C1329      C1330   1.401       .  A
C1329      H1334   1.083       .  S
C1330      C1331   1.401       .  A
C1331      C1332   1.397       .  A
C1331      H1335   1.083       .  S
C1332      H1336   1.082       .  S
C1337      C1338   1.406       .  A
C1337      C1342   1.394       .  A
C1337      H1347   1.083       .  S
C1338      C1343   1.481       .  S
C1338      C1339   1.407       .  A
C1339      C1340   1.394       .  A
C1339      H1344   1.082       .  S
C1340      C1341   1.399       .  A
C1340      H1345   1.081       .  S
C1341      C1342   1.401       .  A
C1342      H1346   1.083       .  S
C1343      C1348   1.404       .  A
C1343      C1352   1.404       .  A
C1348      C1349   1.391       .  A
C1348      H1353   1.082       .  S
C1349      C1350   1.407       .  A
C1349      H1354   1.081       .  S
C1350      C1351   1.406       .  A
C1351      C1352   1.396       .  A
C1351      H1355   1.077       .  S
C1352      H1356   1.083       .  S
C1357      C1358   1.404       .  A
C1357      C1362   1.400       .  A
C1357      H1367   1.083       .  S
C1358      C1363   1.488       .  S
C1358      C1359   1.403   1_554  A
C1359      C1360   1.399       .  A
C1359      H1364   1.083       .  S
C1360      C1361   1.412   1_556  A
C1360      H1365   1.076       .  S
C1361      C1362   1.410       .  A
C1362      H1366   1.083       .  S
C1363      C1368   1.404       .  A
C1363      C1372   1.404   1_554  A
C1368      C1369   1.400       .  A
C1368      H1373   1.083       .  S
C1369      C1370   1.412       .  A
C1369      H1374   1.077       .  S
C1370      C1371   1.409   1_554  A
C1371      C1372   1.398       .  A
C1371      H1375   1.083       .  S
C1372      H1376   1.083       .  S
C1377      C1378   1.405       .  A
C1377      C1382   1.396       .  A
C1377      H1387   1.083       .  S
C1378      C1383   1.481       .  S
C1378      C1379   1.406   1_554  A
C1379      C1380   1.395       .  A
C1379      H1384   1.083       .  S
C1380      C1381   1.402   1_556  A
C1380      H1385   1.083       .  S
C1381      C1382   1.404       .  A
C1382      H1386   1.083       .  S
C1383      C1388   1.404   1_554  A
C1383      C1392   1.406       .  A
C1388      C1389   1.394       .  A
C1388      H1393   1.083       .  S
C1389      C1390   1.404   1_556  A
C1389      H1394   1.083       .  S
C1390      C1391   1.403       .  A
C1391      C1392   1.397       .  A
C1391      H1395   1.083       .  S
C1392      H1396   1.083       .  S
C1397      C1398   1.406   1_554  A
C1397      C1402   1.394       .  A
C1397      H1407   1.082       .  S
C1398      C1403   1.488       .  S
C1398      C1399   1.408       .  A
C1399      C1400   1.399       .  A
C1399      H1404   1.082       .  S
C1400      C1401   1.404       .  A
C1400      H1405   1.083       .  S
C1401      C1402   1.404   1_556  A
C1402      H1406   1.083       .  S
C1403      C1408   1.408   1_556  A
C1403      C1412   1.406       .  A
C1408      C1409   1.398       .  A
C1408      H1413   1.083       .  S
C1409      C1410   1.403       .  A
C1409      H1414   1.083       .  S
C1410      C1411   1.404   1_554  A
C1411      C1412   1.396       .  A
C1411      H1415   1.083       .  S
C1412      H1416   1.082       .  S
