geometry optimzed in LAMMPS
_audit_creation_date              2020-11-30 
_audit_creation_method            'lammps2cif' 
_symmetry_space_group_name_H-M    'P1' 
_symmetry_Int_Tables_number       1 
_symmetry_cell_setting            triclinic 
loop_ 
_symmetry_equiv_pos_as_xyz 
  x,y,z 
_cell_length_a                    63.46783703 
_cell_length_b                    63.412569432025464 
_cell_length_c                    41.842813612291174 
_cell_angle_alpha                 90.06933351945288 
_cell_angle_beta                  90.17143744626382 
_cell_angle_gamma                 119.8915425025521 
loop_ 
_atom_site_label 
_atom_site_type_symbol 
_atom_site_fract_x 
_atom_site_fract_y 
_atom_site_fract_z 
_atom_site_charge 
Fe1        Fe  0.15649784  0.49245113  0.21125836     1.65800
Fe2        Fe  0.11672758  0.44269437  0.16960403     1.73200
Fe3        Fe  0.10521686  0.44950679  0.24747992     1.54400
O4          O  0.13551050  0.45818704  0.27753971    -0.81000
O5          O  0.08310685  0.43894833  0.16995218    -0.79300
O6          O  0.16850269  0.47932340  0.24716145    -0.83500
O7          O  0.14429080  0.50879058  0.24358517    -0.78400
O8          O  0.10142427  0.41575989  0.24417058    -0.80200
O9          O  0.12702780  0.47455608  0.14185226    -0.82900
C10         C  0.12407802  0.50332033  0.25626034     0.97900
C11         C  0.15824021  0.46698439  0.27199671     1.05300
O12         O  0.12593742  0.46140011  0.20948654    -1.11900
O13         O  0.14966287  0.44434359  0.16524116    -0.74300
O14         O  0.17498465  0.48255224  0.17899189    -0.77800
O15         O  0.10637865  0.48187168  0.25565868    -0.78500
C16         C  0.17072131  0.46268692  0.16610284     0.96800
O17         O  0.14503058  0.50611161  0.17531010    -0.76500
O18         O  0.10462068  0.40883271  0.19268551    -0.81600
C19         C  0.06821596  0.43726594  0.19109198     0.99400
C20         C  0.10085525  0.40206061  0.22187481     1.05300
O21         O  0.07303273  0.43918332  0.22100702    -0.77300
C22         C  0.13481082  0.49701364  0.14875447     1.03600
Fe23       Fe  0.99527206  0.16160261  0.37320518     1.65800
Fe24       Fe  0.00628485  0.21428943  0.40735822     1.73200
Fe25       Fe  0.98149185  0.19888580  0.33266629     1.54400
O26         O  0.00403994  0.18993930  0.30391108    -0.81000
O27         O  0.97713724  0.21951631  0.40699116    -0.79300
O28         O  0.02005038  0.17379864  0.33714583    -0.83500
O29         O  0.96782947  0.14211362  0.34077868    -0.78400
O30         O  0.00938920  0.23371190  0.33055459    -0.80200
O31         O  0.98534621  0.18449043  0.43879909    -0.82900
C32         C  0.95078450  0.14439855  0.32892548     0.97900
C33         C  0.01992230  0.18347463  0.31053463     1.05300
O34         O  0.99430718  0.19188384  0.37105929    -1.11900
O35         O  0.03762576  0.21246317  0.41242496    -0.74300
O36         O  0.02307382  0.17320848  0.40606335    -0.77800
O37         O  0.95129380  0.16454514  0.32960541    -0.78500
C38         C  0.03961223  0.19376096  0.41558239     0.96800
O39         O  0.97042281  0.15033412  0.40911944    -0.76500
O40         O  0.02698400  0.24535286  0.37841391    -0.81600
C41         C  0.96059086  0.21682391  0.38777509     0.99400
C42         C  0.02563744  0.24932601  0.34869938     1.05300
O43         O  0.95939632  0.20939500  0.35893411    -0.77300
C44         C  0.97013601  0.16173857  0.43399957     1.03600
Fe45       Fe  0.83803679  0.32986019  0.03827055     1.65800
Fe46       Fe  0.88171971  0.32335057  0.07558125     1.73200
Fe47       Fe  0.88486884  0.33588480  0.50125582     1.54400
O48         O  0.85360910  0.31052303  0.47572921    -0.81000
O49         O  0.91529022  0.35237983  0.07020428    -0.79300
O50         O  0.82455278  0.30292692  0.00502611    -0.83500
O51         O  0.84601594  0.35534026  0.00234164    -0.78400
O52         O  0.89316128  0.31037518  0.99955693    -0.80200
O53         O  0.87364015  0.34679035  0.10318482    -0.82900
C54         C  0.86241203  0.36830669  0.49264588     0.97900
C55         C  0.83074309  0.29844096  0.48151417     1.05300
O56         O  0.86929635  0.33072709  0.03687954    -1.11900
O57         O  0.84976571  0.29290998  0.08647439    -0.74300
O58         O  0.82261118  0.30363351  0.07393962    -0.77800
O59         O  0.87966851  0.36404360  0.48944881    -0.78500
C60         C  0.82859854  0.28978717  0.08824411     0.96800
O61         O  0.85163035  0.35714013  0.07163719    -0.76500
O62         O  0.89129853  0.30009841  0.05097158    -0.81600
C63         C  0.92841789  0.36556396  0.04778903     0.99400
C64         C  0.89444372  0.29735056  0.02138473     1.05300
O65         O  0.92129723  0.36266010  0.01874849    -0.77300
C66         C  0.86419407  0.36017621  0.09677798     1.03600
Fe67       Fe  0.83365347  0.49851007  0.28997915     1.65800
Fe68       Fe  0.86054342  0.55906987  0.29423266     1.73200
Fe69       Fe  0.89483782  0.53209694  0.29002354     1.54400
O70         O  0.88346159  0.50153072  0.31879618    -0.81000
O71         O  0.88008634  0.57146277  0.25318594    -0.79300
O72         O  0.84441971  0.48769807  0.32957379    -0.83500
O73         O  0.84838186  0.48268546  0.25994793    -0.78400
O74         O  0.90575852  0.55273008  0.33110071    -0.80200
O75         O  0.82858265  0.54440118  0.26679412    -0.82900
C76         C  0.86800791  0.48991975  0.24427026     0.97900
C77         C  0.86440765  0.48837580  0.33507635     1.05300
O78         O  0.86311522  0.52987895  0.29137719    -1.11900
O79         O  0.84033211  0.54752312  0.33549932    -0.74300
O80         O  0.81449419  0.50970134  0.32000819    -0.77800
O81         O  0.88642818  0.51087343  0.24898083    -0.78500
C82         C  0.81994258  0.52809188  0.33788931     0.96800
O83         O  0.82164021  0.50811670  0.25016474    -0.76500
O84         O  0.89284641  0.57877428  0.32095488    -0.81600
C85         C  0.90214641  0.57706898  0.25036512     0.99400
C86         C  0.90762163  0.57345116  0.33445230     1.05300
O87         O  0.91045482  0.56422169  0.26263008    -0.77300
C88         C  0.81800184  0.52598052  0.24835156     1.03600
Fe89       Fe  0.15552853  0.66602424  0.45716955     1.65800
Fe90       Fe  0.09459220  0.63288719  0.46111435     1.73200
Fe91       Fe  0.12260620  0.69440337  0.45178187     1.54400
O92         O  0.15301114  0.71391332  0.48161233    -0.81000
O93         O  0.07820453  0.63859537  0.42243568    -0.79300
O94         O  0.16516066  0.68779072  0.49674857    -0.83500
O95         O  0.17226738  0.69667828  0.42821497    -0.78400
O96         O  0.10098930  0.68665090  0.49139419    -0.80200
O97         O  0.10805185  0.61669640  0.42997918    -0.82900
C98         C  0.16592417  0.70878818  0.41038054     0.97900
C99         C  0.16529231  0.70780556  0.49978065     1.05300
O100        O  0.12400692  0.66439404  0.45652662    -1.11900
O101        O  0.10736019  0.61997895  0.99398771    -0.74300
O102        O  0.14502110  0.63551951  0.48609992    -0.77800
O103        O  0.14453730  0.70558834  0.41150301    -0.78500
C104        C  0.12692225  0.61952167  0.99866303     0.96800
O105        O  0.14639322  0.64423891  0.41754630    -0.76500
O106        O  0.07771754  0.64619372  0.49149890    -0.81600
C107        C  0.07643139  0.65669585  0.41332933     0.99400
C108        C  0.08500868  0.66700862  0.99530489     1.05300
O109        O  0.09131376  0.67834709  0.42260650    -0.77300
C110        C  0.12708719  0.62402760  0.41286482     1.03600
Fe111      Fe  0.99917950  0.82280621  0.12031604     1.65800
Fe112      Fe  0.02844989  0.79034574  0.12233473     1.73200
Fe113      Fe  0.96720860  0.76206802  0.11541307     1.54400
O114        O  0.94939748  0.77496556  0.14400637    -0.81000
O115        O  0.02032625  0.77017440  0.08078396    -0.79300
O116        O  0.97654472  0.81269648  0.15912843    -0.83500
O117        O  0.96954128  0.81178182  0.08962204    -0.78400
O118        O  0.97475920  0.74934939  0.15598071    -0.80200
O119        O  0.04772566  0.82184631  0.09503792    -0.82900
C120        C  0.95656953  0.79327481  0.07217157     0.97900
C121        C  0.95604345  0.79349211  0.16183509     1.05300
O122        O  0.99833130  0.79172827  0.11922665    -1.11900
O123        O  0.03946810  0.81105351  0.16413118    -0.74300
O124        O  0.02913067  0.83861800  0.15072481    -0.77800
O125        O  0.95748016  0.77374934  0.07475495    -0.78500
C126        C  0.04185906  0.83213951  0.16715238     0.96800
O127        O  0.02150974  0.83430676  0.08165168    -0.76500
O128        O  0.01255708  0.75729722  0.14798630    -0.81600
C129        C  0.00143194  0.74973482  0.07552751     0.99400
C130        C  0.99106608  0.74349700  0.15829482     1.05300
O131        O  0.98090028  0.74411005  0.08765089    -0.77300
C132        C  0.04145465  0.83457753  0.07823121     1.03600
Fe133      Fe  0.32874259  0.83006163  0.20653241     1.65800
Fe134      Fe  0.32132645  0.87312718  0.16978630     1.73200
Fe135      Fe  0.34165437  0.88103856  0.24700536     1.54400
O136        O  0.31917784  0.84991634  0.27508099    -0.81000
O137        O  0.35145059  0.90664762  0.17199831    -0.79300
O138        O  0.30308811  0.81814890  0.24145639    -0.83500
O139        O  0.35554041  0.83811469  0.23997815    -0.78400
O140        O  0.31298993  0.88709727  0.24692753    -0.80200
O141        O  0.34218085  0.86299124  0.14012529    -0.82900
C142        C  0.37231496  0.85739256  0.25237545     0.97900
C143        C  0.30300791  0.82799024  0.26792445     1.05300
O144        O  0.33066006  0.86173040  0.20772029    -1.11900
O145        O  0.28956666  0.84105266  0.16270202    -0.74300
O146        O  0.30153390  0.81461000  0.17284259    -0.77800
O147        O  0.37184230  0.87706839  0.25166845    -0.78500
C148        C  0.28653435  0.81990111  0.16068066     0.96800
O149        O  0.35434041  0.84231751  0.17150154    -0.76500
O150        O  0.30038255  0.88447830  0.19640567    -0.81600
C151        C  0.36576126  0.92034674  0.19345247     0.99400
C152        C  0.29893575  0.88802678  0.22623292     1.05300
O153        O  0.36416806  0.91395131  0.22269834    -0.77300
C154        C  0.35595106  0.85389409  0.14596763     1.03600
Fe155      Fe  0.17013442  0.99816248  0.36521036     1.65800
Fe156      Fe  0.22050357  0.00372582  0.32993540     1.73200
Fe157      Fe  0.20858416  0.98725092  0.40832192     1.54400
O158        O  0.19801628  0.00896929  0.43485765    -0.81000
O159        O  0.22319405  0.97337818  0.33514790    -0.79300
O160        O  0.18265515  0.02433962  0.39981848    -0.83500
O161        O  0.15137190  0.97148544  0.39900850    -0.78400
O162        O  0.24272703  0.01692999  0.40769118    -0.80200
O163        O  0.18991175  0.98201648  0.30056845    -0.82900
C164        C  0.15456898  0.95519676  0.41174592     0.97900
C165        C  0.19120841  0.02425745  0.42728118     1.05300
O166        O  0.20004525  0.99654561  0.36780876    -1.11900
O167        O  0.22037367  0.03524427  0.31949969    -0.74300
O168        O  0.18258131  0.02524820  0.33103035    -0.77800
O169        O  0.17507646  0.95647697  0.41224445    -0.78500
C170        C  0.20270420  0.03906493  0.31763186     0.96800
O171        O  0.15718270  0.97177095  0.33084750    -0.76500
O172        O  0.25281382  0.02515307  0.35614917    -0.81600
C173        C  0.22387923  0.96089786  0.35813502     0.99400
C174        C  0.25785512  0.02888799  0.38596833     1.05300
O175        O  0.22052231  0.96481714  0.38706747    -0.77300
C176        C  0.16714106  0.96870026  0.30633325     1.03600
Fe177      Fe  0.49210911  0.15300271  0.03833053     1.65800
Fe178      Fe  0.43992613  0.11218486  0.07351105     1.73200
Fe179      Fe  0.45902795  0.10742242  0.49846401     1.54400
O180        O  0.46771758  0.13951808  0.47162369    -0.81000
O181        O  0.43368623  0.07767833  0.07278730    -0.79300
O182        O  0.48294903  0.17072637  0.50648620    -0.83500
O183        O  0.51000087  0.14361794  0.00466419    -0.78400
O184        O  0.41934943  0.09747789  0.99649349    -0.80200
O185        O  0.47033324  0.12012369  0.10393958    -0.82900
C186        C  0.51261686  0.13140447  0.49276834     0.97900
C187        C  0.47332186  0.16139609  0.47957601     1.05300
O188        O  0.46143319  0.12218061  0.03679098    -1.11900
O189        O  0.44264618  0.14535749  0.07915734    -0.74300
O190        O  0.48174606  0.16992930  0.07272956    -0.77800
O191        O  0.49300127  0.11159000  0.49535705    -0.78500
C192        C  0.46143588  0.16554028  0.08392400     0.96800
O193        O  0.50388501  0.13904918  0.07346083    -0.76500
O194        O  0.40870879  0.10318560  0.04511907    -0.81600
C195        C  0.43515517  0.06349190  0.05302233     0.99400
C196        C  0.40452021  0.09887743  0.01516178     1.05300
O197        O  0.44153780  0.06936845  0.02397863    -0.77300
C198        C  0.49297646  0.12743714  0.09851244     1.03600
Fe199      Fe  0.82299087  0.99218209  0.11434130     1.65800
Fe200      Fe  0.79481717  0.02512392  0.11791492     1.73200
Fe201      Fe  0.76220321  0.96362952  0.12017215     1.54400
O202        O  0.77298793  0.94556707  0.08864615    -0.81000
O203        O  0.77521289  0.01656100  0.15917199    -0.79300
O204        O  0.81059633  0.97220040  0.07288722    -0.83500
O205        O  0.80977414  0.96030284  0.14149714    -0.78400
O206        O  0.74925420  0.97350264  0.08178885    -0.80200
O207        O  0.82618420  0.04078365  0.14648074    -0.82900
C208        C  0.79133084  0.94779884  0.15913105     0.97900
C209        C  0.79067274  0.95237005  0.06936812     1.05300
O210        O  0.79326396  0.99368725  0.11751497    -1.11900
O211        O  0.81549891  0.03692377  0.07668192    -0.74300
O212        O  0.84138546  0.02395899  0.08709600    -0.77800
O213        O  0.77298566  0.95082075  0.15861313    -0.78500
C214        C  0.83592771  0.03818173  0.07241343     0.96800
O215        O  0.83594159  0.01201488  0.15564070    -0.76500
O216        O  0.76244266  0.01273207  0.09094655    -0.81600
C217        C  0.75415342  0.99875901  0.16417339     0.99400
C218        C  0.74742269  0.99235358  0.07808717     1.05300
O219        O  0.74665836  0.97819014  0.15075849    -0.77300
C220        C  0.83761879  0.03235694  0.16225359     1.03600
Fe221      Fe  0.50463231  0.82842241  0.45597188     1.65800
Fe222      Fe  0.56528264  0.86212814  0.44818981     1.73200
Fe223      Fe  0.53094092  0.88883344  0.45572597     1.54400
O224        O  0.49793650  0.87294074  0.43080484    -0.81000
O225        O  0.57788107  0.88331882  0.48805394    -0.79300
O226        O  0.49035993  0.83594795  0.41668347    -0.83500
O227        O  0.48686832  0.84071062  0.48651025    -0.78400
O228        O  0.54749011  0.89857774  0.41250413    -0.80200
O229        O  0.55587736  0.83200360  0.47783136    -0.82900
C230        C  0.49061945  0.86582119  0.00283769     0.97900
C231        C  0.48704243  0.85394300  0.41340091     1.05300
O232        O  0.53370346  0.85978950  0.45358545    -1.11900
O233        O  0.55420990  0.83965644  0.40818805    -0.74300
O234        O  0.51791608  0.81149702  0.42594116    -0.77800
O235        O  0.51071284  0.88522827  0.99858221    -0.78500
C236        C  0.53600098  0.81815111  0.40739360     0.96800
O237        O  0.51827148  0.81996360  0.49489921    -0.76500
O238        O  0.57965240  0.89440891  0.42011906    -0.81600
C239        C  0.57962611  0.90389310  0.49241620     0.99400
C240        C  0.56989461  0.90639037  0.40919864     1.05300
O241        O  0.56457562  0.90939076  0.48001395    -0.77300
C242        C  0.53819845  0.81988956  0.49690049     1.03600
Fe243      Fe  0.66685859  0.15658492  0.28286601     1.65800
Fe244      Fe  0.63414673  0.09603903  0.28319327     1.73200
Fe245      Fe  0.69501496  0.12391202  0.29122782     1.54400
O246        O  0.71509423  0.15448607  0.26184233    -0.81000
O247        O  0.64149278  0.08678756  0.32659748    -0.79300
O248        O  0.68901991  0.16588282  0.24394202    -0.83500
O249        O  0.69724763  0.17401985  0.31297973    -0.78400
O250        O  0.68756107  0.10273701  0.25137626    -0.80200
O251        O  0.61655995  0.11106716  0.30845693    -0.82900
C252        C  0.70784844  0.16703251  0.33272558     0.97900
C253        C  0.70940885  0.16666332  0.24278380     1.05300
O254        O  0.66542442  0.12548484  0.28485189    -1.11900
O255        O  0.62435863  0.10520364  0.24038548    -0.74300
O256        O  0.63631685  0.14376190  0.25239731    -0.77800
O257        O  0.70453041  0.14554313  0.33185013    -0.78500
C258        C  0.62286052  0.12434607  0.23648557     0.96800
O259        O  0.64544926  0.14816984  0.32262352    -0.76500
O260        O  0.64824899  0.07630873  0.25897319    -0.81600
C261        C  0.65672276  0.07983023  0.33095635     0.99400
C262        C  0.66899339  0.08196320  0.24717356     1.05300
O263        O  0.67812388  0.09173150  0.31938683    -0.77300
C264        C  0.62486111  0.12944855  0.32699109     1.03600
Fe265      Fe  0.48815571  0.32345585  0.28639998     1.65800
Fe266      Fe  0.45916740  0.35529034  0.28572323     1.73200
Fe267      Fe  0.42716824  0.29392308  0.29144850     1.54400
O268        O  0.43919205  0.27493749  0.26257858    -0.81000
O269        O  0.43981402  0.34741851  0.32713551    -0.79300
O270        O  0.47653038  0.30220120  0.24621163    -0.83500
O271        O  0.47508071  0.29261512  0.31554002    -0.78400
O272        O  0.41406524  0.30186346  0.25101746    -0.80200
O273        O  0.49075590  0.37271530  0.31365828    -0.82900
C274        C  0.45698991  0.28098926  0.33410569     0.97900
C275        C  0.45728543  0.28170612  0.24387020     1.05300
O276        O  0.45804827  0.32421886  0.28762381    -1.11900
O277        O  0.47961434  0.36587068  0.24420827    -0.74300
O278        O  0.50630286  0.35447507  0.25735028    -0.77800
O279        O  0.43840123  0.28361813  0.33230454    -0.78500
C280        C  0.50040267  0.36775048  0.24101920     0.96800
O281        O  0.50047038  0.34453113  0.32672205    -0.76500
O282        O  0.42671677  0.34120437  0.25889132    -0.81600
C283        C  0.41795677  0.33071635  0.33030554     0.99400
C284        C  0.41200190  0.32054623  0.24646070     1.05300
O285        O  0.41032088  0.30941912  0.31893506    -0.77300
C286        C  0.50222737  0.36515198  0.33095315     1.03600
Fe287      Fe  0.16776161  0.16747964  0.11665315     1.65800
Fe288      Fe  0.22918941  0.19793593  0.11317330     1.73200
Fe289      Fe  0.19835091  0.22877937  0.12431242     1.54400
O290        O  0.16828633  0.21770349  0.09394357    -0.81000
O291        O  0.24447223  0.21950386  0.15290606    -0.79300
O292        O  0.15637883  0.17959174  0.07862435    -0.83500
O293        O  0.14988424  0.17881675  0.14801306    -0.78400
O294        O  0.22050861  0.24449822  0.08563166    -0.80200
O295        O  0.21724281  0.16779052  0.14289596    -0.82900
C296        C  0.15516453  0.19711680  0.16572572     0.97900
C297        C  0.15588547  0.19928769  0.07592520     1.05300
O298        O  0.19861869  0.19821310  0.11817709    -1.11900
O299        O  0.21778155  0.17604155  0.07250068    -0.74300
O300        O  0.17954171  0.15033011  0.08491944    -0.77800
O301        O  0.17576970  0.21633782  0.16391403    -0.78500
C302        C  0.19830976  0.15592895  0.06830777     0.96800
O303        O  0.17809269  0.15401353  0.15444885    -0.76500
O304        O  0.24507448  0.22881283  0.08414385    -0.81600
C305        C  0.24473376  0.23847788  0.16314216     0.99400
C306        C  0.23943726  0.24466868  0.07558495     1.05300
O307        O  0.22909521  0.24435944  0.15429186    -0.77300
C308        C  0.19811255  0.15440554  0.15899653     1.03600
Fe309      Fe  0.32586386  0.48619291  0.45447296     1.65800
Fe310      Fe  0.35757728  0.45758232  0.45917114     1.73200
Fe311      Fe  0.29623519  0.42502370  0.45509800     1.54400
O312        O  0.27826951  0.43834676  0.48380380    -0.81000
O313        O  0.34932337  0.43749941  0.41840074    -0.79300
O314        O  0.30553528  0.47695295  0.49506453    -0.83500
O315        O  0.29455760  0.47192018  0.42660034    -0.78400
O316        O  0.30539856  0.41397582  0.49632144    -0.80200
O317        O  0.37506296  0.48865814  0.43063993    -0.82900
C318        C  0.28163448  0.45262284  0.41051222     0.97900
C319        C  0.28552613  0.45767792  0.50051855     1.05300
O320        O  0.32641256  0.45609509  0.45643884    -1.11900
O321        O  0.36668451  0.47639487  0.99630309    -0.74300
O322        O  0.35722115  0.50544483  0.48257085    -0.77800
O323        O  0.28392537  0.43389251  0.41382519    -0.78500
C324        C  0.36756361  0.49665980  0.00023111     0.96800
O325        O  0.34600455  0.49579341  0.41335935    -0.76500
O326        O  0.34398188  0.42546378  0.48628716    -0.81600
C327        C  0.33315857  0.41532238  0.41691683     0.99400
C328        C  0.32360954  0.41098625  0.49916199     1.05300
O329        O  0.31186821  0.40762307  0.42841616    -0.77300
C330        C  0.36698751  0.49820330  0.41082505     1.03600
Fe331      Fe  0.49548124  0.65873917  0.20205417     1.65800
Fe332      Fe  0.53415489  0.64478759  0.23869880     1.73200
Fe333      Fe  0.54485932  0.66650985  0.16274635     1.54400
O334        O  0.51316673  0.64672605  0.13419676    -0.81000
O335        O  0.56923048  0.67191202  0.23778799    -0.79300
O336        O  0.48129649  0.63261141  0.16749746    -0.83500
O337        O  0.50579183  0.68528933  0.16722223    -0.78400
O338        O  0.54752249  0.63584340  0.16210093    -0.80200
O339        O  0.52738682  0.66825788  0.26808212    -0.82900
C340        C  0.52619954  0.70098003  0.15629585     0.97900
C341        C  0.49077530  0.63194083  0.14097076     1.05300
O342        O  0.52513745  0.65663924  0.20117272    -1.11900
O343        O  0.50007466  0.61538221  0.24417910    -0.74300
O344        O  0.47787723  0.63279159  0.23731155    -0.77800
O345        O  0.54467516  0.69861563  0.15926582    -0.78500
C346        C  0.48075176  0.61593171  0.24869250     0.96800
O347        O  0.51090764  0.68490570  0.23644310    -0.76500
O348        O  0.54260214  0.62172557  0.21201784    -0.81600
C349        C  0.58389598  0.68609654  0.21720920     0.99400
C350        C  0.54669798  0.62067193  0.18233238     1.05300
O351        O  0.57795426  0.68632178  0.18806557    -0.77300
C352        C  0.52182435  0.68481230  0.26198283     1.03600
Fe353      Fe  0.66038915  0.49778105  0.03655887     1.65800
Fe354      Fe  0.65225129  0.53924041  0.99663653     1.73200
Fe355      Fe  0.67018285  0.54847924  0.07502048     1.54400
O356        O  0.64666052  0.51702867  0.10280479    -0.81000
O357        O  0.68220453  0.57309586  0.99906079    -0.79300
O358        O  0.63321301  0.48485764  0.06988013    -0.83500
O359        O  0.68562886  0.50646743  0.07263234    -0.78400
O360        O  0.64189897  0.55476738  0.07141688    -0.80200
O361        O  0.67242877  0.52717709  0.47459133    -0.82900
C362        C  0.70115148  0.52588962  0.08617318     0.97900
C363        C  0.63187747  0.49449209  0.09600166     1.05300
O364        O  0.66091040  0.52879008  0.03610593    -1.11900
O365        O  0.61953798  0.50243697  0.49567968    -0.74300
O366        O  0.63507465  0.48170816  0.00065367    -0.77800
O367        O  0.70043308  0.54532280  0.08356330    -0.78500
C368        C  0.61902387  0.48231504  0.49408819     0.96800
O369        O  0.68744944  0.51107268  0.00320012    -0.76500
O370        O  0.63060689  0.55100395  0.02017014    -0.81600
C371        C  0.69585083  0.58715464  0.02084335     0.99400
C372        C  0.62883558  0.55577726  0.04934990     1.05300
O373        O  0.69336629  0.58112773  0.05036690    -0.77300
C374        C  0.68732882  0.51972180  0.48203624     1.03600
Fe375      Fe  0.82240293  0.81838652  0.36273521     1.65800
Fe376      Fe  0.77211046  0.77898012  0.40252020     1.73200
Fe377      Fe  0.77914731  0.76845417  0.32464707     1.54400
O378        O  0.78909420  0.80019711  0.29681276    -0.81000
O379        O  0.76555272  0.74436386  0.40059975    -0.79300
O380        O  0.80895019  0.83224544  0.32956628    -0.83500
O381        O  0.83733910  0.80752437  0.32685271    -0.78400
O382        O  0.74601085  0.76564877  0.32765951    -0.80200
O383        O  0.80389586  0.78694056  0.42952196    -0.82900
C384        C  0.83210320  0.78738164  0.31406571     0.97900
C385        C  0.79730296  0.82275954  0.30382107     1.05300
O386        O  0.79102065  0.78825737  0.36332418    -1.11900
O387        O  0.77603168  0.81259798  0.40896503    -0.74300
O388        O  0.81487955  0.83619616  0.39889326    -0.77800
O389        O  0.81121601  0.76896655  0.31655995    -0.78500
C390        C  0.79545792  0.83259282  0.41208339     0.96800
O391        O  0.83545410  0.80416589  0.39588859    -0.76500
O392        O  0.73893823  0.76960418  0.37884424    -0.81600
C393        C  0.76377047  0.72951429  0.37925112     0.99400
C394        C  0.73253150  0.76607346  0.34941612     1.05300
O395        O  0.76732784  0.73511949  0.34956059    -0.77300
C396        C  0.82607104  0.79366984  0.42216671     1.03600
C397        C  0.73985457  0.63250019  0.46777569    -0.13700
C398        C  0.73169335  0.64932433  0.46489323     0.16700
C399        C  0.71326976  0.64719540  0.48581758     0.03000
C400        C  0.71041480  0.63119130  0.01369906    -0.12200
C401        C  0.71464337  0.61161569  0.00990351    -0.03300
C402        C  0.72889549  0.61294948  0.48936109     0.02200
C403        C  0.74124194  0.66782889  0.43859926     0.09000
N404        N  0.70440507  0.66391866  0.48407424     0.65400
H405        H  0.69632112  0.62947989  0.02973132     0.18300
N406        N  0.73581762  0.59469926  0.48853884     0.75900
H407        H  0.75377757  0.63364517  0.45179666     0.09800
C408        C  0.76601828  0.68579172  0.43674172     0.03500
C409        C  0.77383209  0.70418539  0.41354928    -0.05200
C410        C  0.75745057  0.70517219  0.39169893    -0.23600
C411        C  0.73311842  0.68608944  0.39182245     0.12800
C412        C  0.72524748  0.66763333  0.41503991    -0.12700
N413        N  0.78309150  0.68692922  0.45998679     0.64400
H414        H  0.79243914  0.71904961  0.41448041     0.12300
N415        N  0.71574331  0.68633017  0.37028497     0.61100
H416        H  0.70631994  0.65354206  0.41536254     0.08500
O417        O  0.75337939  0.59722409  0.50554500    -0.40400
O418        O  0.72750193  0.58095588  0.95780784    -0.39600
O419        O  0.69708902  0.66811919  0.98534529    -0.39600
O420        O  0.71378297  0.68262177  0.50161745    -0.37300
O421        O  0.71086902  0.67448353  0.34446423    -0.38200
O422        O  0.70230089  0.69453190  0.37951825    -0.34300
O423        O  0.79871346  0.68113535  0.45209044    -0.35700
O424        O  0.79109525  0.70222900  0.99691707    -0.40000
C425        C  0.64144293  0.70556566  0.26299518    -0.13700
C426        C  0.64614496  0.72819918  0.27505398     0.16700
C427        C  0.63303555  0.73887932  0.26211888     0.03000
C428        C  0.61441568  0.72603744  0.23956841    -0.12200
C429        C  0.60858726  0.70262286  0.22951509    -0.03300
C430        C  0.62273142  0.69269452  0.24081287     0.02200
C431        C  0.66573974  0.74071221  0.29963870     0.09000
N432        N  0.63716278  0.76193445  0.27331148     0.65400
H433        H  0.60318344  0.73354311  0.23195253     0.18300
N434        N  0.61716258  0.66874815  0.23154441     0.75900
H435        H  0.65198223  0.69752027  0.27141776     0.09800
C436        C  0.66669019  0.72873882  0.32773099     0.03500
C437        C  0.68779867  0.73905688  0.34685415    -0.05200
C438        C  0.70826571  0.76109488  0.33832683    -0.23600
C439        C  0.70654020  0.77392864  0.31172601     0.12800
C440        C  0.68545875  0.76374346  0.29280244    -0.12700
N441        N  0.64689251  0.70542364  0.33619127     0.64400
H442        H  0.68889438  0.72880375  0.36678740     0.12300
N443        N  0.72705917  0.79618290  0.30155722     0.61100
H444        H  0.68531521  0.77310092  0.27127947     0.08500
O445        O  0.60344347  0.65082266  0.24882527    -0.40400
O446        O  0.62900606  0.66603840  0.20932192    -0.39600
O447        O  0.64636500  0.78000778  0.25479770    -0.39600
O448        O  0.62762035  0.76315221  0.29914998    -0.37300
O449        O  0.73834443  0.79622321  0.27677361    -0.38200
O450        O  0.73020479  0.81609299  0.31253502    -0.34300
O451        O  0.64953631  0.68698308  0.33512725    -0.35700
O452        O  0.62865245  0.70402869  0.35015282    -0.40000
C453        C  0.60677007  0.59293640  0.09114248    -0.13700
C454        C  0.58516675  0.57456371  0.10464296     0.16700
C455        C  0.57559918  0.55044073  0.09361252     0.03000
C456        C  0.58868425  0.54485315  0.07140363    -0.12200
C457        C  0.61122079  0.56301181  0.05984185    -0.03300
C458        C  0.61982388  0.58734814  0.06906105     0.02200
C459        C  0.57271198  0.58129365  0.12939226     0.09000
N460        N  0.55377706  0.53113498  0.10685478     0.65400
H461        H  0.58229532  0.52597758  0.06544298     0.18300
N462        N  0.64284986  0.60630917  0.05817031     0.75900
H463        H  0.61391892  0.61167588  0.09848363     0.09800
C464        C  0.58482444  0.59375826  0.15764708     0.03500
C465        C  0.57446456  0.60403725  0.17745686    -0.05200
C466        C  0.55214086  0.60219057  0.16952997    -0.23600
C467        C  0.53922438  0.58814223  0.14261125     0.12800
C468        C  0.54953777  0.57783737  0.12287886    -0.12700
N469        N  0.60819920  0.59711067  0.16569183     0.64400
H470        H  0.58481312  0.61513617  0.19762292     0.12300
N471        N  0.51642872  0.58583805  0.13360587     0.61100
H472        H  0.54003531  0.56839509  0.10129269     0.08500
O473        O  0.66093131  0.61508426  0.07681278    -0.40400
O474        O  0.64414974  0.61684452  0.03208320    -0.39600
O475        O  0.53489925  0.52039195  0.08975194    -0.39600
O476        O  0.55447401  0.52228854  0.13356962    -0.37300
O477        O  0.51496652  0.59596280  0.10842957    -0.38200
O478        O  0.49722530  0.57004813  0.14701297    -0.34300
O479        O  0.62676866  0.61795841  0.16356510    -0.35700
O480        O  0.60970769  0.58040191  0.17998058    -0.40000
C481        C  0.43139578  0.58463712  0.31099049    -0.13700
C482        C  0.42991268  0.56190681  0.31287207     0.16700
C483        C  0.44370808  0.55625921  0.29196011     0.03000
C484        C  0.45947572  0.57375375  0.27021891    -0.12200
C485        C  0.46169675  0.59694181  0.26897804    -0.03300
C486        C  0.44712719  0.60216690  0.28931258     0.02200
C487        C  0.41426433  0.54461402  0.33746406     0.09000
N488        N  0.44240982  0.53311932  0.29322091     0.65400
H489        H  0.47044383  0.56938722  0.25478809     0.18300
N490        N  0.44929757  0.62570139  0.28987003     0.75900
H491        H  0.42078873  0.58901882  0.32709094     0.09800
C492        C  0.42271483  0.54635623  0.36901508     0.03500
C493        C  0.40723622  0.53052058  0.39237781    -0.05200
C494        C  0.38301621  0.51349247  0.38500186    -0.23600
C495        C  0.37447923  0.51189625  0.35339264     0.12800
C496        C  0.39026110  0.52723689  0.32977513    -0.12700
N497        N  0.44665860  0.56482065  0.37789676     0.64400
H498        H  0.41388909  0.53216688  0.41663703     0.12300
N499        N  0.34996387  0.49466098  0.34487879     0.61100
H500        H  0.38364418  0.52598328  0.30557408     0.08500
O501        O  0.46482320  0.64202696  0.30796006    -0.40400
O502        O  0.43324522  0.62888219  0.27653230    -0.39600
O503        O  0.43196842  0.51791138  0.27098523    -0.39600
O504        O  0.45484810  0.52941047  0.31366863    -0.37300
O505        O  0.34518594  0.47462035  0.33242235    -0.38200
O506        O  0.33413016  0.50115687  0.34442000    -0.34300
O507        O  0.45001379  0.58486757  0.38865734    -0.35700
O508        O  0.46342829  0.55969591  0.38010675    -0.40000
C509        C  0.42112714  0.53143912  0.05781308    -0.13700
C510        C  0.42397157  0.55483094  0.05638018     0.16700
C511        C  0.40871450  0.55900429  0.03618678     0.03000
C512        C  0.39047459  0.53979398  0.01858426    -0.12200
C513        C  0.38707649  0.51609830  0.02027524    -0.03300
C514        C  0.40308263  0.51217101  0.03977492     0.02200
C515        C  0.44184180  0.57436009  0.07757240     0.09000
N516        N  0.41103273  0.58255703  0.03409912     0.65400
H517        H  0.37889911  0.54360932  0.00345263     0.18300
N518        N  0.40279048  0.49249607  0.54446690     0.75900
H519        H  0.43295449  0.52811746  0.07315351     0.09800
C520        C  0.43863900  0.57248985  0.11085383     0.03500
C521        C  0.45499458  0.59131319  0.13065923    -0.05200
C522        C  0.47476950  0.61248938  0.11806405    -0.23600
C523        C  0.47831609  0.61415910  0.08460253     0.12800
C524        C  0.46178807  0.59515890  0.06467098    -0.12700
N525        N  0.41817357  0.55196731  0.12481659     0.64400
H526        H  0.45196216  0.58935014  0.15621955     0.12300
N527        N  0.49810103  0.63514530  0.07040951     0.61100
H528        H  0.46443449  0.59669057  0.03903417     0.08500
O529        O  0.41600596  0.48877789  0.52545475    -0.40400
O530        O  0.39253460  0.47799248  0.56730346    -0.39600
O531        O  0.42019987  0.59532119  0.00946769    -0.39600
O532        O  0.40073409  0.58900577  0.05449598    -0.37300
O533        O  0.51730737  0.63490302  0.06343846    -0.38200
O534        O  0.49459096  0.65155682  0.05902561    -0.34300
O535        O  0.42125199  0.53710249  0.14138998    -0.35700
O536        O  0.39762185  0.55054049  0.12422246    -0.40000
C537        C  0.30263513  0.35498708  0.05083870    -0.13700
C538        C  0.30751793  0.33973606  0.03163731     0.16700
C539        C  0.32331602  0.34985430  0.00542401     0.03000
C540        C  0.33136214  0.37407167  0.99664161    -0.12200
C541        C  0.32355198  0.38818795  0.01339732    -0.03300
C542        C  0.31033798  0.37896376  0.04181790     0.02200
C543        C  0.29131366  0.31311671  0.03546283     0.09000
N544        N  0.32934315  0.33525892  0.98564041     0.65400
H545        H  0.34157851  0.38091528  0.97474320     0.18300
N546        N  0.30325216  0.39320974  0.06059926     0.75900
H547        H  0.29089477  0.34754804  0.07142746     0.09800
C548        C  0.29909214  0.29738714  0.04755603     0.03500
C549        C  0.28172891  0.27379805  0.05739992    -0.05200
C550        C  0.25664340  0.26577442  0.05580263    -0.23600
C551        C  0.24913938  0.28085963  0.04055774     0.12800
C552        C  0.26642881  0.30409627  0.03046445    -0.12700
N553        N  0.32170586  0.30944808  0.55299748     0.64400
H554        H  0.28799212  0.26260769  0.06886234     0.12300
N555        N  0.22401523  0.27364092  0.03707117     0.61100
H556        H  0.26026287  0.31585460  0.02046028     0.08500
O557        O  0.31682866  0.40612552  0.08312868    -0.40400
O558        O  0.28183114  0.38951265  0.05854229    -0.39600
O559        O  0.31637012  0.32472976  0.96147173    -0.39600
O560        O  0.35027300  0.33767836  0.98778841    -0.37300
O561        O  0.21468954  0.28239807  0.05566814    -0.38200
O562        O  0.21297027  0.26321093  0.01165737    -0.34300
O563        O  0.33019566  0.32044301  0.57912214    -0.35700
O564        O  0.33466922  0.30425440  0.53554289    -0.40000
C565        C  0.53833674  0.38819747  0.40827134    -0.13700
C566        C  0.55125129  0.41330468  0.40268681     0.16700
C567        C  0.54843636  0.42240810  0.37322757     0.03000
C568        C  0.53182420  0.40647392  0.35060988    -0.12200
C569        C  0.51877353  0.38132301  0.35614598    -0.03300
C570        C  0.52237051  0.37214561  0.38516984     0.02200
C571        C  0.56750513  0.42978404  0.42792328     0.09000
N572        N  0.56349269  0.44748774  0.36510065     0.65400
H573        H  0.52991162  0.41368765  0.32803029     0.18300
N574        N  0.50945837  0.34667925  0.39194658     0.75900
H575        H  0.54055861  0.38106872  0.43074349     0.09800
C576        C  0.56273867  0.44684549  0.44296804     0.03500
C577        C  0.57945642  0.46344450  0.46496839    -0.05200
C578        C  0.60068896  0.46292183  0.47310869    -0.23600
C579        C  0.60483026  0.44501174  0.45894380     0.12800
C580        C  0.58830874  0.42875134  0.43647595    -0.12700
N581        N  0.54059972  0.44695095  0.43693707     0.64400
H582        H  0.57370874  0.47684846  0.97976404     0.12300
N583        N  0.62627916  0.44380945  0.46580607     0.61100
H584        H  0.59202638  0.41560784  0.42507667     0.08500
O585        O  0.48964162  0.33762933  0.40695658    -0.40400
O586        O  0.51974904  0.33423573  0.38785895    -0.39600
O587        O  0.58573971  0.45555410  0.35947187    -0.39600
O588        O  0.55386356  0.45996958  0.35715387    -0.37300
O589        O  0.62548198  0.42876459  0.48615782    -0.38200
O590        O  0.64454454  0.45455756  0.44784410    -0.34300
O591        O  0.51908525  0.42793166  0.96418194    -0.35700
O592        O  0.54127776  0.46585388  0.42615745    -0.40000
C593        C  0.59536239  0.46308027  0.17189816    -0.13700
C594        C  0.57505039  0.44246750  0.15875459     0.16700
C595        C  0.57293819  0.44030764  0.12523135     0.03000
C596        C  0.59127956  0.45773374  0.10569288    -0.12200
C597        C  0.61201776  0.47809254  0.11857531    -0.03300
C598        C  0.61350899  0.48101220  0.15219232     0.02200
C599        C  0.55602578  0.42343574  0.17995585     0.09000
N600        N  0.55251375  0.42004385  0.11055373     0.65400
H601        H  0.58928463  0.45511328  0.08005637     0.18300
N602        N  0.63335730  0.50185450  0.16676689     0.75900
H603        H  0.59701711  0.46538957  0.19757969     0.09800
C604        C  0.56148681  0.40944236  0.20097769     0.03500
C605        C  0.54314307  0.39127542  0.21992651    -0.05200
C606        C  0.51894778  0.38658113  0.21889797    -0.23600
C607        C  0.51360975  0.40091799  0.19798328     0.12800
C608        C  0.53197435  0.41888786  0.17874973    -0.12700
N609        N  0.58556657  0.41311595  0.20290797     0.64400
H610        H  0.54804940  0.38092288  0.23575563     0.12300
N611        N  0.48973437  0.39778383  0.19610864     0.61100
H612        H  0.52745649  0.42959748  0.16302407     0.08500
O613        O  0.64987186  0.49984140  0.18084403    -0.40400
O614        O  0.63217703  0.52100251  0.17034667    -0.39600
O615        O  0.53603833  0.42288022  0.09785939    -0.39600
O616        O  0.55290818  0.40060306  0.10570819    -0.37300
O617        O  0.48411073  0.41023995  0.21399507    -0.38200
O618        O  0.47597023  0.38601473  0.17308220    -0.34300
O619        O  0.59862822  0.42366951  0.22700383    -0.35700
O620        O  0.59219977  0.40239091  0.18340434    -0.40000
C621        C  0.30124123  0.26171286  0.21421704    -0.13700
C622        C  0.31424549  0.28613495  0.20485553     0.16700
C623        C  0.30219912  0.29580097  0.18690438     0.03000
C624        C  0.27809942  0.28042388  0.17651627    -0.12200
C625        C  0.26584084  0.25535738  0.18344541    -0.03300
C626        C  0.27731793  0.24637002  0.20389111     0.02200
C627        C  0.34094707  0.29966039  0.21081421     0.09000
N628        N  0.31484150  0.32052543  0.17652921     0.65400
H629        H  0.26983685  0.28768542  0.16052349     0.18300
N630        N  0.26536390  0.22135970  0.21309973     0.75900
H631        H  0.31017212  0.25419898  0.22853825     0.09800
C632        C  0.35195969  0.31810781  0.23415948     0.03500
C633        C  0.37638220  0.32688699  0.24288464    -0.05200
C634        C  0.38988234  0.31699810  0.22940061    -0.23600
C635        C  0.37924514  0.29972418  0.20454983     0.12800
C636        C  0.35511566  0.29142217  0.19536588    -0.12700
N637        N  0.33798728  0.32618968  0.25164457     0.64400
H638        H  0.38399756  0.33974446  0.26247648     0.12300
N639        N  0.39234218  0.28957012  0.18939902     0.61100
H640        H  0.34692713  0.27738406  0.17722153     0.08500
O641        O  0.24811443  0.21352587  0.23284543    -0.40400
O642        O  0.27488651  0.20854867  0.20644468    -0.39600
O643        O  0.32702873  0.32598263  0.15107009    -0.39600
O644        O  0.30999557  0.33571163  0.18905814    -0.37300
O645        O  0.40358654  0.29881730  0.16377603    -0.38200
O646        O  0.38859741  0.26886976  0.19776306    -0.34300
O647        O  0.32594514  0.31416046  0.27555533    -0.35700
O648        O  0.34198265  0.34760388  0.24779366    -0.40000
C649        C  0.37192669  0.38611566  0.40307018    -0.13700
C650        C  0.35822532  0.36791517  0.38078043     0.16700
C651        C  0.33521262  0.36412404  0.37147729     0.03000
C652        C  0.32649938  0.37897845  0.38411876    -0.12200
C653        C  0.34101820  0.39825912  0.40497940    -0.03300
C654        C  0.36387059  0.40145522  0.41478900     0.02200
C655        C  0.37034495  0.35596796  0.36467958     0.09000
N656        N  0.32128883  0.34637313  0.34773705     0.65400
H657        H  0.30899294  0.37621129  0.37645459     0.18300
N658        N  0.37945961  0.42048721  0.43637591     0.75900
H659        H  0.38969665  0.38926680  0.41020308     0.09800
C660        C  0.38941759  0.36965371  0.34335627     0.03500
C661        C  0.40441058  0.36081387  0.33305161    -0.05200
C662        C  0.40085932  0.33815963  0.34320667    -0.23600
C663        C  0.38111721  0.32382642  0.36353025     0.12800
C664        C  0.36611265  0.33293371  0.37439339    -0.12700
N665        N  0.39423133  0.39305351  0.33269807     0.64400
H666        H  0.41899157  0.37184750  0.31666381     0.12300
N667        N  0.37714171  0.30094640  0.37504019     0.61100
H668        H  0.35184332  0.32251460  0.39143216     0.08500
O669        O  0.38257987  0.41513231  0.46436002    -0.40400
O670        O  0.39448752  0.44107957  0.42528740    -0.39600
O671        O  0.30449141  0.32565047  0.35604167    -0.39600
O672        O  0.32359609  0.35244165  0.31870196    -0.37300
O673        O  0.38843963  0.30025629  0.39952058    -0.38200
O674        O  0.35963723  0.28150213  0.36417650    -0.34300
O675        O  0.41287575  0.41195174  0.34266007    -0.35700
O676        O  0.38209001  0.39458065  0.30979530    -0.40000
C677        C  0.59204287  0.97291607  0.39233560    -0.13700
C678        C  0.61328351  0.98016457  0.37482619     0.16700
C679        C  0.62068486  0.96294338  0.36846473     0.03000
C680        C  0.60669641  0.93885751  0.37981899    -0.12200
C681        C  0.58472380  0.93142683  0.39613129    -0.03300
C682        C  0.57746093  0.94894524  0.40205398     0.02200
C683        C  0.62597189  0.00547678  0.36219313     0.09000
N684        N  0.64157924  0.96931341  0.34927085     0.65400
H685        H  0.61260483  0.92582550  0.37505648     0.18300
N686        N  0.55538630  0.94292606  0.41842127     0.75900
H687        H  0.58633140  0.98599442  0.39795936     0.09800
C688        C  0.61250708  0.01373857  0.34470669     0.03500
C689        C  0.62278681  0.03821416  0.33705224    -0.05200
C690        C  0.64699131  0.05518097  0.34495931    -0.23600
C691        C  0.66073974  0.04715424  0.36238326     0.12800
C692        C  0.65010344  0.02236765  0.37106220    -0.12700
N693        N  0.58832955  0.99726273  0.33383388     0.64400
H694        H  0.61193407  0.04364162  0.32299031     0.12300
N695        N  0.68493346  0.06399159  0.37251969     0.61100
H696        H  0.66040947  0.01646409  0.38541430     0.08500
O697        O  0.55577267  0.94662628  0.44808217    -0.40400
O698        O  0.53671881  0.93850659  0.40247055    -0.39600
O699        O  0.66057183  0.97132563  0.36190245    -0.39600
O700        O  0.64003092  0.96988005  0.31924107    -0.37300
O701        O  0.68831941  0.07689195  0.39707662    -0.38200
O702        O  0.70270127  0.06357618  0.35974312    -0.34300
O703        O  0.57086171  0.99985506  0.34317943    -0.35700
O704        O  0.58498293  0.98250399  0.31150887    -0.40000
C705        C  0.51293411  0.74101243  0.10227596    -0.13700
C706        C  0.53553446  0.76242888  0.10211921     0.16700
C707        C  0.55447090  0.76422404  0.12160349     0.03000
C708        C  0.55097339  0.74408833  0.13944207    -0.12200
C709        C  0.52855904  0.72229506  0.13889450    -0.03300
C710        C  0.50922535  0.72103564  0.12056806     0.02200
C711        C  0.53914535  0.78189963  0.07974577     0.09000
N712        N  0.57699611  0.78655822  0.12426460     0.65400
H713        H  0.56580038  0.74557587  0.15403635     0.18300
N714        N  0.48618881  0.69919923  0.11871920     0.75900
H715        H  0.49829577  0.73953598  0.08726543     0.09800
C716        C  0.55356412  0.78670961  0.05221033     0.03500
C717        C  0.55405407  0.80298608  0.02927557    -0.05200
C718        C  0.53970668  0.81398069  0.03279917    -0.23600
C719        C  0.52611610  0.80991931  0.06111686     0.12800
C720        C  0.52596280  0.79395790  0.08427083    -0.12700
N721        N  0.56588750  0.77347256  0.04571859     0.64400
H722        H  0.50112795  0.77943681  0.52099570     0.12300
N723        N  0.51227599  0.82173559  0.06665672     0.61100
H724        H  0.51494225  0.79039812  0.10546913     0.08500
O725        O  0.48255068  0.68360290  0.09746454    -0.40400
O726        O  0.46839298  0.69765374  0.13406725    -0.39600
O727        O  0.57810801  0.80346613  0.14142470    -0.39600
O728        O  0.59641396  0.78748930  0.11534598    -0.37300
O729        O  0.48949204  0.80999355  0.06313324    -0.38200
O730        O  0.52209202  0.84208396  0.08067764    -0.34300
O731        O  0.55383922  0.75168029  0.03631502    -0.35700
O732        O  0.58872828  0.78472766  0.04318488    -0.40000
C733        C  0.53621072  0.74618432  0.29649486    -0.13700
C734        C  0.53501387  0.74188301  0.32938874     0.16700
C735        C  0.53109841  0.71917333  0.34035367     0.03000
C736        C  0.52783417  0.70097931  0.31826986    -0.12200
C737        C  0.52799145  0.70494444  0.28519079    -0.03300
C738        C  0.53283262  0.72813938  0.27445733     0.02200
C739        C  0.53554670  0.76068243  0.35115783     0.09000
N740        N  0.52924172  0.71392848  0.37373521     0.65400
H741        H  0.52412811  0.68339841  0.32703090     0.18300
N742        N  0.53446135  0.73376748  0.24114506     0.75900
H743        H  0.53929807  0.76359108  0.28782067     0.09800
C744        C  0.55730080  0.77900105  0.36500598     0.03500
C745        C  0.55745251  0.79826684  0.38198757    -0.05200
C746        C  0.53603544  0.79945364  0.38580705    -0.23600
C747        C  0.51428873  0.78096321  0.37188423     0.12800
C748        C  0.51426487  0.76195842  0.35468674    -0.12700
N749        N  0.57931682  0.77820717  0.36209920     0.64400
H750        H  0.57420655  0.81192604  0.39302731     0.12300
N751        N  0.49221708  0.78173932  0.37389109     0.61100
H752        H  0.49758333  0.74832562  0.34344244     0.08500
O753        O  0.55444523  0.74145861  0.22686840    -0.40400
O754        O  0.51726018  0.73480465  0.22744243    -0.39600
O755        O  0.50860282  0.70355091  0.38675725    -0.39600
O756        O  0.54715887  0.71501113  0.38838413    -0.37300
O757        O  0.48767929  0.79338365  0.35317438    -0.38200
O758        O  0.47552788  0.76727513  0.39225650    -0.34300
O759        O  0.59513224  0.79170665  0.34209395    -0.35700
O760        O  0.58466916  0.76727904  0.38295988    -0.40000
C761        C  0.80017006  0.92790715  0.99138756    -0.13700
C762        C  0.78738626  0.90286615  0.99736930     0.16700
C763        C  0.77419961  0.89411041  0.02597051     0.03000
C764        C  0.77444118  0.91060177  0.04834593    -0.12200
C765        C  0.78820455  0.93578143  0.04309518    -0.03300
C766        C  0.80058300  0.94440761  0.01388351     0.02200
C767        C  0.79275679  0.88312628  0.47833646     0.09000
N768        N  0.76219737  0.86880218  0.03384071     0.65400
H769        H  0.76506662  0.90371333  0.07078825     0.18300
N770        N  0.81329519  0.96976855  0.00646840     0.75900
H771        H  0.79818663  0.92736818  0.46930818     0.09800
C772        C  0.77137832  0.86246557  0.46792643     0.03500
C773        C  0.77270220  0.84683552  0.44556120    -0.05200
C774        C  0.79514962  0.85141632  0.43296063    -0.23600
C775        C  0.81653148  0.87283235  0.44257404     0.12800
C776        C  0.81511817  0.88843043  0.46514350    -0.12700
N777        N  0.74812676  0.85733524  0.47947829     0.64400
H778        H  0.75594958  0.83088187  0.43830019     0.12300
N779        N  0.83985832  0.87878748  0.43041318     0.61100
H780        H  0.82830159  0.90303626  0.98338360     0.08500
O781        O  0.81803935  0.97774757  0.49985936    -0.40400
O782        O  0.80142711  0.98026765  0.99958637    -0.39600
O783        O  0.77468721  0.85884661  0.04007381    -0.39600
O784        O  0.73987047  0.85782896  0.04062041    -0.37300
O785        O  0.85286021  0.87225572  0.44555997    -0.38200
O786        O  0.84917513  0.89422369  0.40830467    -0.34300
O787        O  0.73778184  0.86793068  0.46703527    -0.35700
O788        O  0.73602779  0.83902677  0.49700062    -0.40000
C789        C  0.79292006  0.87664515  0.27061102    -0.13700
C790        C  0.78880414  0.87100496  0.23804339     0.16700
C791        C  0.78621288  0.84874336  0.22715781     0.03000
C792        C  0.78848834  0.83295641  0.24880869    -0.12200
C793        C  0.79345002  0.83898358  0.28142148    -0.03300
C794        C  0.79508929  0.86099980  0.29224325     0.02200
C795        C  0.78905626  0.88963860  0.21610781     0.09000
N796        N  0.78248163  0.84245751  0.19401703     0.65400
H797        H  0.78707377  0.81626292  0.23985517     0.18300
N798        N  0.79873062  0.86778989  0.32526037     0.75900
H799        H  0.79468808  0.89355868  0.27933337     0.09800
C800        C  0.76773942  0.88712751  0.20186919     0.03500
C801        C  0.76876285  0.90636365  0.18387513    -0.05200
C802        C  0.79079286  0.92828681  0.17963258    -0.23600
C803        C  0.81209877  0.93056255  0.19369770     0.12800
C804        C  0.81102695  0.91141845  0.21174034    -0.12700
N805        N  0.74482296  0.86553263  0.20630336     0.64400
H806        H  0.75221210  0.90408356  0.17304521     0.12300
N807        N  0.83478330  0.95268569  0.19133213     0.61100
H808        H  0.82747413  0.91375311  0.22299340     0.08500
O809        O  0.81940835  0.88401800  0.33486385    -0.40400
O810        O  0.78060849  0.86072410  0.34340169    -0.39600
O811        O  0.80034989  0.85174164  0.17522504    -0.39600
O812        O  0.76276076  0.82437414  0.18491327    -0.37300
O813        O  0.84034268  0.96908601  0.21209530    -0.38200
O814        O  0.85094535  0.95381140  0.17278057    -0.34300
O815        O  0.73281185  0.86315097  0.23134227    -0.35700
O816        O  0.73454026  0.85151946  0.18287844    -0.40000
C817        C  0.69813497  0.00185343  0.18658629    -0.13700
C818        C  0.70906626  0.02468935  0.20158713     0.16700
C819        C  0.73373098  0.03584671  0.21047577     0.03000
C820        C  0.74764250  0.02542423  0.20121753    -0.12200
C821        C  0.73742482  0.00375170  0.18331019    -0.03300
C822        C  0.71200827  0.99108728  0.17782048     0.02200
C823        C  0.69468976  0.03674292  0.20829108     0.09000
N824        N  0.74499070  0.05796412  0.22856913     0.65400
H825        H  0.76691189  0.03508898  0.20666196     0.18300
N826        N  0.70034965  0.96826937  0.16132314     0.75900
H827        H  0.67893878  0.99272980  0.18077709     0.09800
C828        C  0.69932086  0.05825517  0.19249941     0.03500
C829        C  0.68859932  0.07157878  0.20357484    -0.05200
C830        C  0.67305612  0.06376636  0.23013381    -0.23600
C831        C  0.66725989  0.04131232  0.24445906     0.12800
C832        C  0.67803816  0.02805486  0.23333279    -0.12700
N833        N  0.71533897  0.06710782  0.16572861     0.64400
H834        H  0.69340623  0.08877677  0.19237019     0.12300
N835        N  0.65277919  0.03297261  0.27257231     0.61100
H836        H  0.67448786  0.01157171  0.24560221     0.08500
O837        O  0.69037562  0.96642373  0.13454851    -0.40400
O838        O  0.69835245  0.94951547  0.17464469    -0.39600
O839        O  0.74032893  0.05741310  0.25795179    -0.39600
O840        O  0.76286906  0.07670989  0.21706309    -0.37300
O841        O  0.63010280  0.02412474  0.27016994    -0.38200
O842        O  0.66136261  0.02816856  0.29693912    -0.34300
O843        O  0.70762377  0.05761009  0.13861297    -0.35700
O844        O  0.73475686  0.08731275  0.16766504    -0.40000
C845        C  0.68796044  0.99083019  0.06038981    -0.13700
C846        C  0.67616113  0.96943388  0.04206166     0.16700
C847        C  0.68984797  0.95923171  0.03008183     0.03000
C848        C  0.71405329  0.96871772  0.03956415    -0.12200
C849        C  0.72543255  0.98876724  0.06040817    -0.03300
C850        C  0.71259862  0.00082471  0.06911745     0.02200
C851        C  0.64942193  0.95682176  0.03670937     0.09000
N852        N  0.67923588  0.93893270  0.00859418     0.65400
H853        H  0.72372652  0.95961227  0.03162389     0.18300
N854        N  0.72383635  0.02238557  0.08818947     0.75900
H855        H  0.67781587  0.99928356  0.06889547     0.09800
C856        C  0.63423121  0.93358336  0.04985221     0.03500
C857        C  0.61053642  0.91916375  0.03817530    -0.05200
C858        C  0.60118412  0.92779166  0.01433180    -0.23600
C859        C  0.61675449  0.94568101  0.49873111     0.12800
C860        C  0.63949765  0.96631886  0.01491002    -0.12700
N861        N  0.64288340  0.92417043  0.07449328     0.64400
H862        H  0.59974432  0.90065723  0.04669545     0.12300
N863        N  0.60822957  0.95682792  0.47656131     0.61100
H864        H  0.65328925  0.97601502  0.49735234     0.08500
O865        O  0.71853795  0.02135105  0.11736253    -0.40400
O866        O  0.73545049  0.04282927  0.07475616    -0.39600
O867        O  0.67388623  0.94182937  0.98048656    -0.39600
O868        O  0.67923354  0.91958783  0.01565655    -0.37300
O869        O  0.61959743  0.96506514  0.45073209    -0.38200
O870        O  0.59520588  0.96517356  0.48696351    -0.34300
O871        O  0.64521070  0.93239104  0.10253899    -0.35700
O872        O  0.64316336  0.90463643  0.06993276    -0.40000
C873        C  0.58488286  0.14342838  0.18535234    -0.13700
C874        C  0.56288423  0.12139702  0.18231798     0.16700
C875        C  0.56131433  0.10018174  0.19536873     0.03000
C876        C  0.58141443  0.10129495  0.21133406    -0.12200
C877        C  0.60339685  0.12343304  0.21504202    -0.03300
C878        C  0.60502195  0.14461773  0.20134822     0.02200
C879        C  0.54264544  0.12046590  0.16278675     0.09000
N880        N  0.53902535  0.07753584  0.19374748     0.65400
H881        H  0.57940741  0.08486192  0.22208679     0.18300
N882        N  0.62729673  0.16730976  0.20230666     0.75900
H883        H  0.58661603  0.15974200  0.17456105     0.09800
C884        C  0.52869315  0.13081791  0.17345004     0.03500
C885        C  0.51124492  0.13146658  0.15312463    -0.05200
C886        C  0.50794991  0.12259747  0.12166707    -0.23600
C887        C  0.52172662  0.11188534  0.11122544     0.12800
C888        C  0.53846394  0.11051508  0.13193466    -0.12700
N889        N  0.53254703  0.14135185  0.20458618     0.64400
H890        H  0.50119734  0.14008154  0.16138719     0.12300
N891        N  0.51968129  0.10316531  0.07916142     0.61100
H892        H  0.54914435  0.10268056  0.12330025     0.08500
O893        O  0.62846197  0.18499418  0.21767805    -0.40400
O894        O  0.64429241  0.17085057  0.18356967    -0.39600
O895        O  0.53769959  0.06028587  0.17715577    -0.39600
O896        O  0.52168865  0.07380064  0.21195038    -0.37300
O897        O  0.53289058  0.11768331  0.05772624    -0.38200
O898        O  0.50977712  0.08058427  0.07412637    -0.34300
O899        O  0.54539807  0.16410064  0.20792620    -0.35700
O900        O  0.52015916  0.12850862  0.22777728    -0.40000
C901        C  0.60551146  0.14176993  0.40748010    -0.13700
C902        C  0.58019183  0.12800831  0.40479423     0.16700
C903        C  0.56958458  0.11453920  0.37667409     0.03000
C904        C  0.58445357  0.11483486  0.35188257    -0.12200
C905        C  0.60984985  0.12899163  0.35419109    -0.03300
C906        C  0.62039816  0.14237015  0.38252482     0.02200
C907        C  0.56508235  0.12933310  0.43054256     0.09000
N908        N  0.54381693  0.10189733  0.37204062     0.65400
H909        H  0.57604601  0.10472130  0.33020141     0.18300
N910        N  0.64616401  0.15601253  0.38678394     0.75900
H911        H  0.61373519  0.15215008  0.42905629     0.09800
C912        C  0.54945090  0.10883648  0.44882839     0.03500
C913        C  0.53307124  0.11015205  0.46988940    -0.05200
C914        C  0.53235019  0.13182536  0.47358261    -0.23600
C915        C  0.54915902  0.15274793  0.45662426     0.12800
C916        C  0.56526610  0.15127848  0.43525495    -0.12700
N917        N  0.55029834  0.08676233  0.44665941     0.64400
H918        H  0.52075986  0.09409568  0.48327824     0.12300
N919        N  0.54904021  0.17516249  0.45903582     0.61100
H920        H  0.57731123  0.16710396  0.42128419     0.08500
O921        O  0.65734642  0.14542805  0.39643672    -0.40400
O922        O  0.65704828  0.17894217  0.38583883    -0.39600
O923        O  0.53315799  0.11387493  0.36688450    -0.39600
O924        O  0.53267296  0.07927719  0.36683661    -0.37300
O925        O  0.56490633  0.19217532  0.47598428    -0.38200
O926        O  0.53653132  0.17959543  0.43956401    -0.34300
O927        O  0.56753398  0.08554537  0.45995190    -0.35700
O928        O  0.53169249  0.06743026  0.43766455    -0.40000
C929        C  0.43942862  0.23066561  0.39706774    -0.13700
C930        C  0.46047524  0.22867114  0.39802931     0.16700
C931        C  0.48050559  0.24455484  0.37930060     0.03000
C932        C  0.47901104  0.26143267  0.35913604    -0.12200
C933        C  0.45784312  0.26341519  0.35749500    -0.03300
C934        C  0.43796227  0.24785309  0.37725193     0.02200
C935        C  0.46169674  0.21021451  0.41882566     0.09000
N936        N  0.50280006  0.24416875  0.38128641     0.65400
H937        H  0.49473326  0.27318978  0.34481235     0.18300
N938        N  0.41607173  0.24904411  0.37743535     0.75900
H939        H  0.42398088  0.21871769  0.41170933     0.09800
C940        C  0.46366972  0.21315201  0.45217960     0.03500
C941        C  0.46701918  0.19685040  0.47111923    -0.05200
C942        C  0.46842157  0.17715964  0.45764344    -0.23600
C943        C  0.46553046  0.17371510  0.42418111     0.12800
C944        C  0.46242824  0.19031074  0.40512839    -0.12700
N945        N  0.46342217  0.23331391  0.46707687     0.64400
H946        H  0.46877404  0.19988508  0.49671780     0.12300
N947        N  0.46653440  0.15405625  0.40901474     0.61100
H948        H  0.46092208  0.18785193  0.37942783     0.08500
O949        O  0.41364526  0.26261885  0.39738014    -0.40400
O950        O  0.39783599  0.23362217  0.36175629    -0.39600
O951        O  0.50881216  0.23482998  0.35900741    -0.39600
O952        O  0.51573028  0.25175602  0.40621440    -0.37300
O953        O  0.44706151  0.13470931  0.40252833    -0.38200
O954        O  0.48631046  0.15750368  0.39734910    -0.34300
O955        O  0.44417657  0.23037375  0.47989907    -0.35700
O956        O  0.48317300  0.25278077  0.47193352    -0.40000
C957        C  0.46067269  0.23026964  0.20357872    -0.13700
C958        C  0.45828377  0.23469943  0.17129028     0.16700
C959        C  0.45461087  0.25416923  0.16304278     0.03000
C960        C  0.45410216  0.26933224  0.18706033    -0.12200
C961        C  0.45650597  0.26485217  0.21927602    -0.03300
C962        C  0.45972195  0.24515486  0.22757540     0.02200
C963        C  0.45874986  0.21813632  0.14680149     0.09000
N964        N  0.45045879  0.25813264  0.13058667     0.65400
H965        H  0.45151063  0.28444463  0.18061637     0.18300
N966        N  0.46288023  0.24065401  0.26021724     0.75900
H967        H  0.46336542  0.21523523  0.21010249     0.09800
C968        C  0.47923836  0.22479271  0.12747175     0.03500
C969        C  0.47949582  0.20778510  0.10621229    -0.05200
C970        C  0.45962744  0.18395340  0.10410059    -0.23600
C971        C  0.43887370  0.17767713  0.12321296     0.12800
C972        C  0.43868369  0.19475476  0.14416166    -0.12700
N973        N  0.50040818  0.24826321  0.13050458     0.64400
H974        H  0.49563118  0.21306459  0.09207499     0.12300
N975        N  0.41825854  0.15368268  0.12305748     0.61100
H976        H  0.42292945  0.18952037  0.15911496     0.08500
O977        O  0.48377955  0.25147622  0.27272857    -0.40400
O978        O  0.44455013  0.22803221  0.27744319    -0.39600
O979        O  0.42943976  0.24582726  0.11872529    -0.39600
O980        O  0.46632021  0.27661193  0.11594606    -0.37300
O981        O  0.41678786  0.13841808  0.14353868    -0.38200
O982        O  0.39993541  0.14908642  0.10619249    -0.34300
O983        O  0.51557834  0.25207581  0.15246848    -0.35700
O984        O  0.50611098  0.26346125  0.10814436    -0.40000
C985        C  0.34296247  0.07285749  0.48923419    -0.13700
C986        C  0.34609485  0.08127600  0.45755576     0.16700
C987        C  0.36929005  0.09921391  0.44754214     0.03000
C988        C  0.38912410  0.10709352  0.46832713    -0.12200
C989        C  0.38242390  0.09614298  0.99899266    -0.03300
C990        C  0.35862547  0.07864744  0.00794302     0.02200
C991        C  0.32513487  0.07055639  0.43505043     0.09000
N992        N  0.37307946  0.10929634  0.41613504     0.65400
H993        H  0.40700995  0.12011229  0.45953885     0.18300
N994        N  0.35384834  0.06657909  0.03812417     0.75900
H995        H  0.32501878  0.05947152  0.49733898     0.09800
C996        C  0.32247810  0.05315117  0.41190547     0.03500
C997        C  0.30139997  0.04173599  0.39287528    -0.05200
C998        C  0.28252829  0.04689125  0.39714938    -0.23600
C999        C  0.28580609  0.06523317  0.41910795     0.12800
C1000       C  0.30703046  0.07694894  0.43773887    -0.12700
N1001       N  0.33983820  0.04510606  0.40969779     0.64400
H1002       H  0.29883281  0.02723534  0.37684003     0.12300
N1003       N  0.26725478  0.07147131  0.42355069     0.61100
H1004       H  0.30902566  0.09050108  0.45512337     0.08500
O1005       O  0.34096058  0.04370861  0.03930957    -0.40400
O1006       O  0.35823959  0.07881040  0.06355336    -0.39600
O1007       O  0.37185812  0.12832694  0.41160383    -0.39600
O1008       O  0.38252654  0.10243705  0.39501450    -0.37300
O1009       O  0.25427315  0.06450336  0.44832344    -0.38200
O1010       O  0.26684810  0.08739341  0.40591726    -0.34300
O1011       O  0.33953552  0.03033340  0.43012584    -0.35700
O1012       O  0.35183946  0.04869477  0.38432530    -0.40000
C1013       C  0.18958692  0.05772047  0.00042144    -0.13700
C1014       C  0.19525222  0.07949403  0.49203511     0.16700
C1015       C  0.19425948  0.08181999  0.45877081     0.03000
C1016       C  0.19329297  0.06382445  0.43848245    -0.12200
C1017       C  0.19322466  0.04305407  0.45057374    -0.03300
C1018       C  0.19445314  0.04083476  0.48408830     0.02200
C1019       C  0.19441753  0.09954879  0.00494445     0.09000
N1020       N  0.19351903  0.10212074  0.44524173     0.65400
H1021       H  0.19247243  0.06617766  0.41298132     0.18300
N1022       N  0.18321113  0.01633446  0.99852360     0.75900
H1023       H  0.18701482  0.05580831  0.02602583     0.09800
C1024       C  0.17425200  0.09594981  0.02310342     0.03500
C1025       C  0.17578151  0.11468809  0.04261393    -0.05200
C1026       C  0.19718322  0.13757337  0.04452309    -0.23600
C1027       C  0.21713666  0.14142600  0.02524966     0.12800
C1028       C  0.21774900  0.12160824  0.51453932    -0.12700
N1029       N  0.15183035  0.07343226  0.02147921     0.64400
H1030       H  0.16001253  0.11106915  0.05659378     0.12300
N1031       N  0.23924170  0.16426336  0.02522932     0.61100
H1032       H  0.23311958  0.12490519  0.49986924     0.08500
O1033       O  0.16143219  0.00070136  0.00446945    -0.40400
O1034       O  0.21431479  0.02109541  0.50392926    -0.39600
O1035       O  0.21201635  0.11862880  0.43136891    -0.39600
O1036       O  0.17348801  0.10170760  0.44295282    -0.37300
O1037       O  0.25707469  0.16688814  0.04171853    -0.38200
O1038       O  0.24704905  0.17777751  0.51256507    -0.34300
O1039       O  0.14468433  0.05946739  0.04534786    -0.35700
O1040       O  0.13752561  0.06935123  0.99829400    -0.40000
C1041       C  0.18185540  0.10275687  0.21741874    -0.13700
C1042       C  0.20327498  0.11223765  0.23569580     0.16700
C1043       C  0.22288118  0.13533620  0.22841849     0.03000
C1044       C  0.22102407  0.14864301  0.20294862    -0.12200
C1045       C  0.19957613  0.13922123  0.18467605    -0.03300
C1046       C  0.17993317  0.11602518  0.19193365     0.02200
C1047       C  0.20560069  0.09642105  0.25970047     0.09000
N1048       N  0.24467077  0.14583200  0.24712025     0.65400
H1049       H  0.23586358  0.16614638  0.19789389     0.18300
N1050       N  0.15862421  0.10490404  0.17226900     0.75900
H1051       H  0.16708501  0.08473619  0.22210905     0.09800
C1052       C  0.19000084  0.08756428  0.28617848     0.03500
C1053       C  0.18986372  0.06944874  0.30539071    -0.05200
C1054       C  0.20519191  0.05991670  0.29866927    -0.23600
C1055       C  0.22158923  0.06963595  0.27281925     0.12800
C1056       C  0.22169358  0.08779145  0.25371752    -0.12700
N1057       N  0.17410838  0.09674088  0.29368701     0.64400
H1058       H  0.17747029  0.06259648  0.32537439     0.12300
N1059       N  0.23678809  0.05991531  0.26392038     0.61100
H1060       H  0.23343015  0.09419617  0.23305594     0.08500
O1061       O  0.13869885  0.10165681  0.18310978    -0.40400
O1062       O  0.15887868  0.09483665  0.14634531    -0.39600
O1063       O  0.26386611  0.14778318  0.23545793    -0.39600
O1064       O  0.24574263  0.15684026  0.27274701    -0.37300
O1065       O  0.22838386  0.04129606  0.24625467    -0.38200
O1066       O  0.25933862  0.07200813  0.26935743    -0.34300
O1067       O  0.15164744  0.08392781  0.28801259    -0.35700
O1068       O  0.18184592  0.11573869  0.31047348    -0.40000
C1069       C  0.39221407  0.85878045  0.07033007    -0.13700
C1070       C  0.41355232  0.86096677  0.08385772     0.16700
C1071       C  0.41594445  0.86168418  0.11730060     0.03000
C1072       C  0.39713462  0.85979462  0.13662756    -0.12200
C1073       C  0.37553507  0.85722348  0.12341432    -0.03300
C1074       C  0.37330967  0.85707286  0.08980828     0.02200
C1075       C  0.43321556  0.86229745  0.06310884     0.09000
N1076       N  0.43714405  0.86356229  0.13205789     0.65400
H1077       H  0.39944500  0.86021355  0.16231130     0.18300
N1078       N  0.35168584  0.85418870  0.07511862     0.75900
H1079       H  0.39017708  0.85822484  0.04461207     0.09800
C1080       C  0.43075089  0.84148574  0.04765158     0.03500
C1081       C  0.44980489  0.84301804  0.02903195    -0.05200
C1082       C  0.47169409  0.86521601  0.02493205    -0.23600
C1083       C  0.47405377  0.88613673  0.04060295     0.12800
C1084       C  0.45500138  0.88442920  0.05963927    -0.12700
N1085       N  0.40904292  0.81851205  0.05098620     0.64400
H1086       H  0.44721327  0.82660791  0.01747880     0.12300
N1087       N  0.49530736  0.90940638  0.03687536     0.61100
H1088       H  0.45712046  0.90055736  0.07151480     0.08500
O1089       O  0.33457678  0.83314685  0.06837870    -0.40400
O1090       O  0.35138015  0.87253413  0.06405359    -0.39600
O1091       O  0.45298941  0.88361173  0.14383486    -0.39600
O1092       O  0.43791520  0.84449198  0.13827103    -0.37300
O1093       O  0.49548780  0.92392164  0.01613007    -0.38200
O1094       O  0.51175440  0.91709668  0.05795968    -0.34300
O1095       O  0.39292395  0.81124487  0.02948614    -0.35700
O1096       O  0.40789259  0.80388123  0.07224084    -0.40000
C1097       C  0.43072634  0.87498198  0.29786946    -0.13700
C1098       C  0.42490701  0.85267796  0.31188380     0.16700
C1099       C  0.40303530  0.83163068  0.30355859     0.03000
C1100       C  0.38690196  0.83341932  0.28245001    -0.12200
C1101       C  0.39188882  0.85603735  0.26995723    -0.03300
C1102       C  0.41448920  0.87683334  0.27695019     0.02200
C1103       C  0.44066387  0.85234298  0.33757786     0.09000
N1104       N  0.39594595  0.80878457  0.31848403     0.65400
H1105       H  0.36964570  0.81720847  0.27755885     0.18300
N1106       N  0.42121035  0.89992903  0.26316769     0.75900
H1107       H  0.44769738  0.89117852  0.30394643     0.09800
C1108       C  0.45437018  0.84059010  0.33399611     0.03500
C1109       C  0.46883294  0.84071178  0.35939239    -0.05200
C1110       C  0.47024730  0.85283713  0.38815522    -0.23600
C1111       C  0.45625285  0.86433029  0.39170192     0.12800
C1112       C  0.44160493  0.86395343  0.36648508    -0.12700
N1113       N  0.45480387  0.82964893  0.30427999     0.64400
H1114       H  0.47978138  0.83215280  0.35612941     0.12300
N1115       N  0.45609360  0.87575617  0.42107881     0.61100
H1116       H  0.43077214  0.87268370  0.36951056     0.08500
O1117       O  0.43227749  0.90570485  0.23682058    -0.40400
O1118       O  0.42035135  0.91604939  0.27989709    -0.39600
O1119       O  0.38762688  0.80503112  0.34653869    -0.39600
O1120       O  0.39315753  0.79102410  0.30168745    -0.37300
O1121       O  0.46853685  0.89859204  0.42369700    -0.38200
O1122       O  0.44053935  0.86360955  0.44212543    -0.34300
O1123       O  0.46664013  0.84303712  0.28114885    -0.35700
O1124       O  0.44763922  0.80718466  0.30311554    -0.40000
C1125       C  0.26139514  0.93422806  0.33075422    -0.13700
C1126       C  0.24632497  0.91881807  0.30632148     0.16700
C1127       C  0.22172407  0.91268568  0.30556204     0.03000
C1128       C  0.21343738  0.92421790  0.32657145    -0.12200
C1129       C  0.22917821  0.94151437  0.34895779    -0.03300
C1130       C  0.25291808  0.94532763  0.35228785     0.02200
C1131       C  0.25688984  0.91014301  0.28129954     0.09000
N1132       N  0.20552171  0.89648978  0.28178321     0.65400
H1133       H  0.19522226  0.92132563  0.32341045     0.18300
N1134       N  0.26916997  0.96191358  0.37573038     0.75900
H1135       H  0.28008734  0.93829253  0.33242161     0.09800
C1136       C  0.27499539  0.92661201  0.26032124     0.03500
C1137       C  0.28664694  0.91845353  0.23925577    -0.05200
C1138       C  0.28076621  0.89400084  0.23889677    -0.23600
C1139       C  0.26200614  0.87738047  0.25913811     0.12800
C1140       C  0.25009918  0.88550347  0.27979711    -0.12700
N1141       N  0.28258333  0.95193103  0.26133565     0.64400
H1142       H  0.30159940  0.93161062  0.22487706     0.12300
N1143       N  0.25622012  0.85255544  0.26091303     0.61100
H1144       H  0.23634058  0.87270984  0.29590159     0.08500
O1145       O  0.28857674  0.98047089  0.36708493    -0.40400
O1146       O  0.26614685  0.95592436  0.40481927    -0.39600
O1147       O  0.18982745  0.87509516  0.28946515    -0.39600
O1148       O  0.20398983  0.90474210  0.25498716    -0.37300
O1149       O  0.25827632  0.84408945  0.28726344    -0.38200
O1150       O  0.24466744  0.83815960  0.23831687    -0.34300
O1151       O  0.30161378  0.96644545  0.27645794    -0.35700
O1152       O  0.27223051  0.96018290  0.24369305    -0.40000
C1153       C  0.41379443  0.96805787  0.14118042    -0.13700
C1154       C  0.40638294  0.98550662  0.14106442     0.16700
C1155       C  0.38890078  0.98347346  0.16351221     0.03000
C1156       C  0.37809931  0.96339734  0.18418516    -0.12200
C1157       C  0.38404220  0.94487603  0.18244332    -0.03300
C1158       C  0.40251972  0.94765513  0.16120875     0.02200
C1159       C  0.41502316  0.00403026  0.11516851     0.09000
N1160       N  0.38080804  0.00084058  0.16417435     0.65400
H1161       H  0.36341314  0.96116965  0.19953248     0.18300
N1162       N  0.40811531  0.92860906  0.15718663     0.75900
H1163       H  0.42705753  0.96929903  0.12393515     0.09800
C1164       C  0.43943643  0.02274307  0.11327110     0.03500
C1165       C  0.44657212  0.04032638  0.08913122    -0.05200
C1166       C  0.42980211  0.03986633  0.06670770    -0.23600
C1167       C  0.40568188  0.02040048  0.06767762     0.12800
C1168       C  0.39855677  0.00262365  0.09160265    -0.12700
N1169       N  0.45656782  0.02552092  0.13749801     0.64400
H1170       H  0.46481189  0.05590550  0.08997074     0.12300
N1171       N  0.38769129  0.01982067  0.04656748     0.61100
H1172       H  0.37979613  0.98804444  0.09243263     0.08500
O1173       O  0.42633056  0.92998744  0.17136739    -0.40400
O1174       O  0.39839669  0.91365493  0.13450937    -0.39600
O1175       O  0.36152335  0.99627246  0.14966354    -0.39600
O1176       O  0.39014176  0.01820971  0.18392286    -0.37300
O1177       O  0.39269685  0.01696235  0.51552853    -0.38200
O1178       O  0.37170806  0.02418121  0.05734342    -0.34300
O1179       O  0.47459204  0.02315789  0.13040877    -0.35700
O1180       O  0.45602190  0.03441693  0.16427301    -0.40000
C1181       C  0.86377034  0.76893961  0.25216055    -0.13700
C1182       C  0.88818313  0.78607657  0.25822272     0.16700
C1183       C  0.89409607  0.80252260  0.28376713     0.03000
C1184       C  0.87559609  0.80234994  0.30199045    -0.12200
C1185       C  0.85103042  0.78575803  0.29540467    -0.03300
C1186       C  0.84517604  0.76865092  0.27040250     0.02200
C1187       C  0.90690117  0.78843700  0.23532129     0.09000
N1188       N  0.91886960  0.81941813  0.29149297     0.65400
H1189       H  0.88051714  0.81534109  0.32136164     0.18300
N1190       N  0.82050723  0.75213000  0.26161346     0.75900
H1191       H  0.85906141  0.75653652  0.23210841     0.09800
C1192       C  0.91113773  0.76901437  0.22943824     0.03500
C1193       C  0.92711143  0.77096968  0.20518840    -0.05200
C1194       C  0.93918671  0.79219133  0.18680079    -0.23600
C1195       C  0.93492353  0.81163687  0.19260434     0.12800
C1196       C  0.91894404  0.80966686  0.21690272    -0.12700
N1197       N  0.89971763  0.74744306  0.24836890     0.64400
H1198       H  0.93041253  0.75598285  0.20104093     0.12300
N1199       N  0.94512543  0.83257347  0.17240677     0.61100
H1200       H  0.91511764  0.82435434  0.22053791     0.08500
O1201       O  0.81161413  0.72963894  0.26642071    -0.40400
O1202       O  0.80902514  0.75947407  0.24456299    -0.39600
O1203       O  0.92715340  0.84189731  0.28739706    -0.39600
O1204       O  0.93148201  0.81218254  0.30616770    -0.37300
O1205       O  0.93622292  0.83117433  0.14494545    -0.38200
O1206       O  0.96031626  0.85311368  0.18365472    -0.34300
O1207       O  0.88449212  0.72748128  0.23572685    -0.35700
O1208       O  0.90745638  0.74766571  0.27625084    -0.40000
C1209       C  0.92202020  0.81603934  0.02099753    -0.13700
C1210       C  0.90025177  0.79432022  0.01497174     0.16700
C1211       C  0.90057802  0.76818316  0.50877398     0.03000
C1212       C  0.91681124  0.77221290  0.04332867    -0.12200
C1213       C  0.93848275  0.79395577  0.04999221    -0.03300
C1214       C  0.94107364  0.81605724  0.03822350     0.02200
C1215       C  0.87402901  0.78506969  0.48874728     0.09000
N1216       N  0.88871884  0.74782486  0.48761702     0.65400
H1217       H  0.91414143  0.75510796  0.05258054     0.18300
N1218       N  0.96325548  0.83855058  0.04245725     0.75900
H1219       H  0.92447398  0.83301948  0.01157873     0.09800
C1220       C  0.85307595  0.78527546  0.49973440     0.03500
C1221       C  0.83727621  0.78738212  0.47786770    -0.05200
C1222       C  0.84205006  0.78963520  0.44486334    -0.23600
C1223       C  0.86289499  0.78894985  0.43400499     0.12800
C1224       C  0.87848004  0.78675239  0.45583295    -0.12700
N1225       N  0.87380250  0.81941837  0.03338428     0.64400
H1226       H  0.82150414  0.78778848  0.48687488     0.12300
N1227       N  0.86870527  0.79053625  0.40078684     0.61100
H1228       H  0.89463891  0.78705122  0.44695292     0.08500
O1229       O  0.96378407  0.85475704  0.06052218    -0.40400
O1230       O  0.98099510  0.84371295  0.02426334    -0.39600
O1231       O  0.89940077  0.74705776  0.46262921    -0.39600
O1232       O  0.86971938  0.72897611  0.49662238    -0.37300
O1233       O  0.88511510  0.81042113  0.38951307    -0.38200
O1234       O  0.86098120  0.77131384  0.38448084    -0.34300
O1235       O  0.88699253  0.84226156  0.03453243    -0.35700
O1236       O  0.86184421  0.80804527  0.05768907    -0.40000
C1237       C  0.09020264  0.88935580  0.03563092    -0.13700
C1238       C  0.08645428  0.88076901  0.00404985     0.16700
C1239       C  0.06798780  0.85687154  0.99711628     0.03000
C1240       C  0.05369441  0.84182101  0.02187691    -0.12200
C1241       C  0.05779116  0.85028607  0.05344613    -0.03300
C1242       C  0.07596654  0.87426554  0.06038738     0.02200
C1243       C  0.09907845  0.89868353  0.46795867     0.09000
N1244       N  0.04636310  0.87859228  0.46720604     0.65400
H1245       H  0.03943220  0.82343796  0.01650298     0.18300
N1246       N  0.07992981  0.88352921  0.09232973     0.75900
H1247       H  0.10440107  0.90775289  0.04104642     0.09800
C1248       C  0.10336589  0.92271964  0.46989026     0.03500
C1249       C  0.12049208  0.94056155  0.44973458    -0.05200
C1250       C  0.13412147  0.93504736  0.42849781    -0.23600
C1251       C  0.12928860  0.91088323  0.42587284     0.12800
C1252       C  0.11177294  0.89288209  0.44552653    -0.12700
N1253       N  0.07211505  0.90500453  0.95657148     0.64400
H1254       H  0.12435520  0.95917001  0.45226209     0.12300
N1255       N  0.14177757  0.90434046  0.40308589     0.61100
H1256       H  0.10839662  0.87440154  0.44375620     0.08500
O1257       O  0.07352975  0.89874954  0.10007446    -0.40400
O1258       O  0.09306986  0.87946502  0.11113613    -0.39600
O1259       O  0.04448638  0.87056948  0.43910968    -0.39600
O1260       O  0.03428249  0.88864990  0.47512586    -0.37300
O1261       O  0.15942839  0.90186730  0.41200667    -0.38200
O1262       O  0.13252671  0.89682779  0.37578745    -0.34300
O1263       O  0.06637456  0.91558351  0.97748553    -0.35700
O1264       O  0.05844868  0.89549582  0.93262410    -0.40000
C1265       C  0.09092926  0.86430174  0.23189743    -0.13700
C1266       C  0.09828469  0.88885313  0.22583732     0.16700
C1267       C  0.08701388  0.89430377  0.20068057     0.03000
C1268       C  0.06858796  0.87553371  0.18266635    -0.12200
C1269       C  0.06094929  0.85088274  0.18862620    -0.03300
C1270       C  0.07253343  0.84539238  0.21355764     0.02200
C1271       C  0.11700480  0.90857236  0.24651275     0.12600
N1272       N  0.09363683  0.91887437  0.19353580     0.65400
H1273       H  0.06035407  0.88047987  0.16358835     0.18300
N1274       N  0.06556238  0.82081109  0.22111271     0.75900
H1275       H  0.09952245  0.85977596  0.25096749     0.09800
C1276       C  0.11357515  0.90870537  0.27973427     0.03500
C1277       C  0.13043360  0.92817556  0.29840702    -0.05200
C1278       C  0.15104387  0.94804322  0.28485200    -0.23600
C1279       C  0.15506768  0.94751962  0.25176863     0.12800
C1280       C  0.13808839  0.92790013  0.23294120    -0.12700
N1281       N  0.09243499  0.88971702  0.29477692     0.64400
H1282       H  0.12707415  0.92784454  0.32380845     0.12300
N1283       N  0.17565992  0.96713501  0.23668604     0.61100
H1284       H  0.14124876  0.92789688  0.20755181     0.08500
O1285       O  0.05054745  0.81009561  0.24328637    -0.40400
O1286       O  0.07772137  0.81164399  0.21016095    -0.39600
O1287       O  0.10623657  0.92898152  0.16908599    -0.39600
O1288       O  0.08316183  0.92862184  0.20780618    -0.37300
O1289       O  0.19452968  0.96567368  0.23207983    -0.38200
O1290       O  0.17362585  0.98392972  0.22352607    -0.34300
O1291       O  0.09441554  0.87490493  0.31290664    -0.35700
O1292       O  0.07293917  0.89046660  0.29462681    -0.40000
C1293       C  0.05929558  0.69803524  0.04581095    -0.13700
C1294       C  0.03480292  0.68545260  0.03650203     0.16700
C1295       C  0.02592837  0.66324248  0.01981251     0.03000
C1296       C  0.04229318  0.65575074  0.00934336    -0.12200
C1297       C  0.06741433  0.67005757  0.01552679    -0.03300
C1298       C  0.07551268  0.69054524  0.03574101     0.02200
C1299       C  0.02073302  0.69831721  0.04062814     0.09000
N1300       N  0.00078838  0.64891441  0.01160069     0.65400
H1301       H  0.03559326  0.63985473  0.99412172     0.18300
N1302       N  0.09792105  0.70636073  0.54907825     0.75900
H1303       H  0.06621825  0.71471728  0.05950010     0.09800
C1304       C  0.00173453  0.69106251  0.06291720     0.03500
C1305       C  0.99348818  0.70723383  0.07122713    -0.05200
C1306       C  0.00432539  0.73084417  0.05827654    -0.23600
C1307       C  0.02166970  0.73708021  0.03387638     0.12800
C1308       C  0.02953301  0.72081115  0.02515491    -0.12700
N1309       N  0.99242605  0.66965951  0.58961179     0.64400
H1310       H  0.98028865  0.70216395  0.09024707     0.12300
N1311       N  0.03234139  0.76035522  0.01882489     0.61100
H1312       H  0.04383387  0.72645223  0.00755173     0.08500
O1313       O  0.10655660  0.70202116  0.57377630    -0.40400
O1314       O  0.10989710  0.72664808  0.53533787    -0.39600
O1315       O  0.99321072  0.65271110  0.98555625    -0.39600
O1316       O  0.98761479  0.62946076  0.02660669    -0.37300
O1317       O  0.02183038  0.76343855  0.99514171    -0.38200
O1318       O  0.05395298  0.77624289  0.02542564    -0.34300
O1319       O  0.00171034  0.67294023  0.61715384    -0.35700
O1320       O  0.97357145  0.64974425  0.58313067    -0.40000
C1321       C  0.22902691  0.78715389  0.11042098    -0.13700
C1322       C  0.23101710  0.76746082  0.09905416     0.16700
C1323       C  0.25008189  0.76400437  0.10998204     0.03000
C1324       C  0.26700052  0.78050707  0.13172452    -0.12200
C1325       C  0.26585581  0.80103931  0.14200829    -0.03300
C1326       C  0.24622030  0.80395486  0.13169418     0.02200
C1327       C  0.21383714  0.75161327  0.07436283     0.09000
N1328       N  0.25372735  0.74510743  0.09723957     0.65400
H1329       H  0.28202177  0.77800285  0.13890882     0.18300
N1330       N  0.24355295  0.82394293  0.14218200     0.75900
H1331       H  0.21426794  0.78975044  0.10219271     0.09800
C1332       C  0.19796944  0.72665950  0.07975517     0.03500
C1333       C  0.18311702  0.71206679  0.05489732    -0.05200
C1334       C  0.18340591  0.72210683  0.02495877    -0.23600
C1335       C  0.19904969  0.74713037  0.01970886     0.12800
C1336       C  0.21410155  0.76168525  0.04445726    -0.12700
N1337       N  0.19617101  0.71609795  0.11053085     0.64400
H1338       H  0.17096038  0.69286864  0.05914760     0.12300
N1339       N  0.19279899  0.76112514  0.49270581     0.61100
H1340       H  0.22657382  0.78079439  0.04007517     0.08500
O1341       O  0.23104981  0.82161231  0.16669134    -0.40400
O1342       O  0.24935439  0.84170981  0.12371396    -0.39600
O1343       O  0.26039306  0.74632532  0.06858774    -0.39600
O1344       O  0.25518641  0.73028068  0.11593982    -0.37300
O1345       O  0.18090332  0.77219565  0.49190478    -0.38200
O1346       O  0.20720969  0.76400254  0.47024237    -0.34300
O1347       O  0.18747677  0.72212290  0.13357308    -0.35700
O1348       O  0.19894770  0.69780975  0.11326341    -0.40000
C1349       C  0.19866272  0.75780768  0.34607052    -0.13700
C1350       C  0.22294361  0.76361807  0.35084215     0.16700
C1351       C  0.22809945  0.75172616  0.37547086     0.03000
C1352       C  0.20928337  0.73406012  0.39403088    -0.12200
C1353       C  0.18484421  0.72770016  0.38905559    -0.03300
C1354       C  0.17970506  0.74015275  0.36490964     0.02200
C1355       C  0.24269867  0.78144689  0.32956689     0.09000
N1356       N  0.25239935  0.75691819  0.38150958     0.65400
H1357       H  0.21403903  0.72528993  0.41258927     0.18300
N1358       N  0.15545898  0.73517630  0.35904764     0.75900
H1359       H  0.19438908  0.76711228  0.32774258     0.09800
C1360       C  0.24153037  0.77796232  0.29621662     0.03500
C1361       C  0.26127940  0.79342483  0.27709063    -0.05200
C1362       C  0.28260150  0.81291718  0.29018791    -0.23600
C1363       C  0.28330762  0.81725863  0.32341598     0.12800
C1364       C  0.26351495  0.80151660  0.34272325    -0.12700
N1365       N  0.22069440  0.75828186  0.28134020     0.64400
H1366       H  0.25980515  0.78998756  0.25159765     0.12300
N1367       N  0.30399854  0.83723704  0.33805869     0.61100
H1368       H  0.26447435  0.80491757  0.36817770     0.08500
O1369       O  0.14360905  0.72183320  0.33573967    -0.40400
O1370       O  0.14780221  0.74767334  0.37306114    -0.39600
O1371       O  0.26353887  0.76899467  0.40602310    -0.39600
O1372       O  0.26098420  0.74597787  0.36573625    -0.37300
O1373       O  0.30462363  0.85732971  0.34128990    -0.38200
O1374       O  0.31926106  0.83359153  0.35279389    -0.34300
O1375       O  0.20621192  0.76256882  0.26570401    -0.35700
O1376       O  0.21958004  0.73795915  0.27822073    -0.40000
C1377       C  0.93061704  0.64304585  0.22634312    -0.13700
C1378       C  0.94981792  0.64623135  0.20682808     0.16700
C1379       C  0.95447777  0.62684005  0.20292900     0.03000
C1380       C  0.93905608  0.60422397  0.21740717    -0.12200
C1381       C  0.91879756  0.60071066  0.23523806    -0.03300
C1382       C  0.91504845  0.62068169  0.24014141     0.02200
C1383       C  0.96293883  0.66958819  0.18938800     0.09000
N1384       N  0.97422506  0.62961593  0.18367458     0.65400
H1385       H  0.94252789  0.58929670  0.21403296     0.18300
N1386       N  0.89570141  0.61877892  0.25964768     0.75900
H1387       H  0.92729351  0.65803487  0.23028060     0.09800
C1388       C  0.94952826  0.67645497  0.16939031     0.03500
C1389       C  0.95943296  0.70051810  0.15985379    -0.05200
C1390       C  0.98297148  0.71834734  0.16912779    -0.23600
C1391       C  0.99733858  0.71118384  0.18677019     0.12800
C1392       C  0.98708118  0.68689270  0.19727175    -0.12700
N1393       N  0.92521398  0.65928459  0.15982486     0.64400
H1394       H  0.94841446  0.70527427  0.14499240     0.12300
N1395       N  0.02166556  0.72849661  0.19576839     0.61100
H1396       H  0.99750394  0.68186821  0.21285620     0.08500
O1397       O  0.87702528  0.61721946  0.24658830    -0.40400
O1398       O  0.89925482  0.62338347  0.28914667    -0.39600
O1399       O  0.99387911  0.63389295  0.19685034    -0.39600
O1400       O  0.97065707  0.62365972  0.15454374    -0.37300
O1401       O  0.02581095  0.73857596  0.22286112    -0.38200
O1402       O  0.03914102  0.73048934  0.17919956    -0.34300
O1403       O  0.90761364  0.66070605  0.17138029    -0.35700
O1404       O  0.92171359  0.64567862  0.13601922    -0.40000
C1405       C  0.76512902  0.52762874  0.20855878    -0.13700
C1406       C  0.76807422  0.52273767  0.17671818     0.16700
C1407       C  0.78725162  0.51867841  0.16860164     0.03000
C1408       C  0.80333930  0.51972141  0.19232282    -0.12200
C1409       C  0.80075636  0.52513274  0.22409720    -0.03300
C1410       C  0.78136205  0.52893265  0.23226899     0.02200
C1411       C  0.75150818  0.52289799  0.15207357     0.09000
N1412       N  0.79053210  0.51346542  0.13637078     0.65400
H1413       H  0.81804710  0.51654618  0.18587043     0.18300
N1414       N  0.77738409  0.53314756  0.26468212     0.75900
H1415       H  0.75028396  0.53060717  0.21493208     0.09800
C1416       C  0.72809170  0.50281265  0.14779777     0.03500
C1417       C  0.71236702  0.50393538  0.12531803    -0.05200
C1418       C  0.71942140  0.52509134  0.10729730    -0.23600
C1419       C  0.74301852  0.54518099  0.11145014     0.12800
C1420       C  0.75891509  0.54385646  0.13361917    -0.12700
N1421       N  0.71987018  0.48136244  0.16662206     0.64400
H1422       H  0.69422014  0.48844347  0.12276269     0.12300
N1423       N  0.75119222  0.56685399  0.09310443     0.61100
H1424       H  0.77696674  0.55936816  0.13684337     0.08500
O1425       O  0.76221072  0.51563445  0.28144266    -0.40400
O1426       O  0.78573678  0.55465304  0.27465478    -0.39600
O1427       O  0.80722734  0.52972309  0.11966276    -0.39600
O1428       O  0.77896036  0.49188916  0.12607905    -0.37300
O1429       O  0.75161169  0.58519364  0.10555377    -0.38200
O1430       O  0.76181151  0.56903584  0.06685003    -0.34300
O1431       O  0.70659636  0.47815018  0.19059761    -0.35700
O1432       O  0.72186956  0.46383687  0.15591468    -0.40000
C1433       C  0.72331147  0.52248125  0.40705973    -0.13700
C1434       C  0.74427361  0.52399800  0.42090421     0.16700
C1435       C  0.74678741  0.52553099  0.45437021     0.03000
C1436       C  0.72830267  0.52474253  0.47334283    -0.12200
C1437       C  0.70694890  0.52258732  0.45980546    -0.03300
C1438       C  0.70482131  0.52201978  0.42616959     0.02200
C1439       C  0.76372043  0.52462508  0.40032530     0.09000
N1440       N  0.76772009  0.52709118  0.46957119     0.65400
H1441       H  0.73149277  0.52642973  0.99312865     0.18300
N1442       N  0.68389077  0.52046279  0.41105644     0.75900
H1443       H  0.72135866  0.52176447  0.38131631     0.09800
C1444       C  0.75941929  0.50479136  0.38074137     0.03500
C1445       C  0.77801969  0.50609024  0.36128703    -0.05200
C1446       C  0.80132587  0.52696645  0.36089638    -0.23600
C1447       C  0.80563940  0.54671088  0.38113137     0.12800
C1448       C  0.78692429  0.54536158  0.40041100    -0.12700
N1449       N  0.73637226  0.48292035  0.38096093     0.64400
H1450       H  0.77404025  0.49062155  0.34629045     0.12300
N1451       N  0.82877531  0.56846097  0.38224740     0.61100
H1452       H  0.79048240  0.56074569  0.41534266     0.08500
O1453       O  0.66686100  0.50007471  0.40185003    -0.40400
O1454       O  0.68432799  0.53965454  0.40202866    -0.39600
O1455       O  0.78450566  0.54957602  0.97705581    -0.39600
O1456       O  0.76837305  0.50789765  0.47532596    -0.37300
O1457       O  0.83216038  0.58677141  0.36632526    -0.38200
O1458       O  0.84420750  0.57069989  0.40303690    -0.34300
O1459       O  0.72224888  0.47765143  0.35728728    -0.35700
O1460       O  0.73178026  0.46725044  0.40240151    -0.40000
C1461       C  0.96387669  0.60188138  0.38615022    -0.13700
C1462       C  0.97910411  0.62277641  0.36840075     0.16700
C1463       C  0.96887145  0.62974434  0.34343187     0.03000
C1464       C  0.94428251  0.61468142  0.33501003    -0.12200
C1465       C  0.92966234  0.59258726  0.35098303    -0.03300
C1466       C  0.93936457  0.58694891  0.37784395     0.02200
C1467       C  0.00582193  0.63464835  0.37404236     0.09000
N1468       N  0.98363467  0.65070026  0.32445309     0.65400
H1469       H  0.93732471  0.61915663  0.31398520     0.18300
N1470       N  0.92468277  0.56564106  0.39628188     0.75900
H1471       H  0.97136604  0.59657663  0.40582271     0.09800
C1472       C  0.01955234  0.65780705  0.38829502     0.03500
C1473       C  0.04376085  0.66607998  0.39787841    -0.05200
C1474       C  0.05450708  0.65143559  0.39392754    -0.23600
C1475       C  0.04125218  0.62919730  0.37702873     0.12800
C1476       C  0.01724708  0.62108434  0.36746893    -0.12700
N1477       N  0.00864818  0.67223293  0.39563377     0.64400
H1478       H  0.05336966  0.68305648  0.41096144     0.12300
N1479       N  0.05148426  0.61401558  0.37058821     0.61100
H1480       H  0.00706897  0.60349578  0.35589903     0.08500
O1481       O  0.90990187  0.56576485  0.41627564    -0.40400
O1482       O  0.92948275  0.54859102  0.39676609    -0.39600
O1483       O  0.99430775  0.64864835  0.30026112    -0.39600
O1484       O  0.98144570  0.66932110  0.32738921    -0.37300
O1485       O  0.04400972  0.59440070  0.38580331    -0.38200
O1486       O  0.06406747  0.61765503  0.34576389    -0.34300
O1487       O  0.99393824  0.66626684  0.41859453    -0.35700
O1488       O  0.01690395  0.69295874  0.38313759    -0.40000
C1489       C  0.74955015  0.19645855  0.40537467    -0.13700
C1490       C  0.76059288  0.22132180  0.39769386     0.16700
C1491       C  0.75391305  0.22796290  0.36882920     0.03000
C1492       C  0.73663437  0.21005608  0.34848680    -0.12200
C1493       C  0.72548095  0.18517461  0.35607423    -0.03300
C1494       C  0.73209717  0.17847623  0.38504025     0.02200
C1495       C  0.77910229  0.24017305  0.41968804     0.09000
N1496       N  0.76414170  0.25294427  0.36007054     0.65400
H1497       H  0.73205946  0.21576213  0.32643123     0.18300
N1498       N  0.72084436  0.15359321  0.39466094     0.75900
H1499       H  0.75457979  0.19092205  0.42717815     0.09800
C1500       C  0.77382824  0.24180539  0.45200107     0.03500
C1501       C  0.79092670  0.26073558  0.47132890    -0.05200
C1502       C  0.81380907  0.27832019  0.45955394    -0.23600
C1503       C  0.81958078  0.27592227  0.42761394     0.12800
C1504       C  0.80228524  0.25708078  0.40809077    -0.12700
N1505       N  0.75092002  0.22474140  0.46551820     0.64400
H1506       H  0.78867179  0.26508315  0.99325828     0.12300
N1507       N  0.84266220  0.29265553  0.41429205     0.61100
H1508       H  0.80697864  0.25572445  0.38366363     0.08500
O1509       O  0.70215308  0.14483136  0.41200014    -0.40400
O1510       O  0.73188272  0.14185499  0.39076415    -0.39600
O1511       O  0.77875522  0.26125966  0.33696066    -0.39600
O1512       O  0.75549490  0.26538821  0.37167286    -0.37300
O1513       O  0.85881871  0.28667600  0.41202173    -0.38200
O1514       O  0.84527552  0.31118940  0.39965748    -0.34300
O1515       O  0.75111446  0.21152428  0.98137182    -0.35700
O1516       O  0.73332932  0.22867066  0.46365029    -0.40000
C1517       C  0.76093372  0.19582310  0.18233978    -0.13700
C1518       C  0.76154019  0.21795950  0.17679392     0.16700
C1519       C  0.74505475  0.22292268  0.19282178     0.03000
C1520       C  0.72816816  0.20582298  0.21385829    -0.12200
C1521       C  0.72746729  0.18366446  0.21965977    -0.03300
C1522       C  0.74400404  0.17863336  0.20358055     0.02200
C1523       C  0.77884541  0.23550301  0.15345176     0.09000
N1524       N  0.74579029  0.24564480  0.18867594     0.65400
H1525       H  0.71584298  0.21015635  0.22625630     0.18300
N1526       N  0.74281028  0.15564191  0.20696728     0.75900
H1527       H  0.77328682  0.19169604  0.16964291     0.09800
C1528       C  0.80404212  0.24753504  0.15907146     0.03500
C1529       C  0.81988952  0.26455495  0.13699098    -0.05200
C1530       C  0.81103628  0.27016732  0.10931442    -0.23600
C1531       C  0.78577946  0.25770957  0.10342496     0.12800
C1532       C  0.76993361  0.24052519  0.12545958    -0.12700
N1533       N  0.81367157  0.24365924  0.18797015     0.64400
H1534       H  0.83919751  0.27411918  0.14219275     0.12300
N1535       N  0.77604673  0.26144516  0.07455976     0.61100
H1536       H  0.75056560  0.23098749  0.12068390     0.08500
O1537       O  0.75780761  0.15378490  0.22491585    -0.40400
O1538       O  0.72991367  0.13859933  0.18781640    -0.39600
O1539       O  0.72934123  0.24654174  0.17276033    -0.39600
O1540       O  0.76080678  0.26398954  0.20455174    -0.37300
O1541       O  0.77375413  0.24855873  0.05038094    -0.38200
O1542       O  0.76543122  0.27378077  0.07511974    -0.34300
O1543       O  0.82515559  0.23217461  0.18723323    -0.35700
O1544       O  0.81399430  0.25486063  0.21307962    -0.40000
C1545       C  0.89139423  0.45664774  0.19072098    -0.13700
C1546       C  0.86960049  0.43720748  0.17902171     0.16700
C1547       C  0.84749938  0.43586408  0.18760274     0.03000
C1548       C  0.84745439  0.45349696  0.20797561    -0.12200
C1549       C  0.86921001  0.47282323  0.22039173    -0.03300
C1550       C  0.89141729  0.47433332  0.21118044     0.02200
C1551       C  0.87006099  0.41843193  0.15787265     0.09000
N1552       N  0.82483554  0.41612460  0.17674788     0.65400
H1553       H  0.83016047  0.45175331  0.21454925     0.18300
N1554       N  0.91411784  0.49293127  0.22366018     0.75900
H1555       H  0.90851179  0.45791539  0.18428991     0.09800
C1556       C  0.86670291  0.41858193  0.12464174     0.03500
C1557       C  0.86527082  0.39971541  0.10553335    -0.05200
C1558       C  0.86765713  0.38049495  0.11859610    -0.23600
C1559       C  0.87228568  0.38105876  0.15177125     0.12800
C1560       C  0.87316260  0.39976367  0.17107932    -0.12700
N1561       N  0.86531875  0.43814581  0.10979293     0.64400
H1562       H  0.86243759  0.40028876  0.08007946     0.12300
N1563       N  0.87544151  0.36249214  0.16642382     0.61100
H1564       H  0.87601104  0.39956532  0.19658486     0.08500
O1565       O  0.92784105  0.51086266  0.20639671    -0.40400
O1566       O  0.92221793  0.48934111  0.24942364    -0.39600
O1567       O  0.81526776  0.39620721  0.19164036    -0.39600
O1568       O  0.81250778  0.41988225  0.15618092    -0.37300
O1569       O  0.89644781  0.36509023  0.16846938    -0.38200
O1570       O  0.85820344  0.34578934  0.18195071    -0.34300
O1571       O  0.88467534  0.45711646  0.10202547    -0.35700
O1572       O  0.84529514  0.43457395  0.09868779    -0.40000
C1573       C  0.85242594  0.41890503  0.46119981    -0.13700
C1574       C  0.86282182  0.42223969  0.43075701     0.16700
C1575       C  0.87325534  0.40814192  0.42135640     0.03000
C1576       C  0.87355295  0.39140013  0.44249635    -0.12200
C1577       C  0.86273705  0.38756693  0.47270186    -0.03300
C1578       C  0.85190031  0.40137690  0.48202894     0.02200
C1579       C  0.86333742  0.44077222  0.40898487     0.09000
N1580       N  0.88264208  0.40984396  0.38983340     0.65400
H1581       H  0.88141626  0.38054392  0.43458435     0.18300
N1582       N  0.82683861  0.35948104  0.94155541     0.75900
H1583       H  0.84468844  0.42992970  0.46880759     0.09800
C1584       C  0.84190258  0.44045504  0.39960468     0.03500
C1585       C  0.84292346  0.45658857  0.37622456    -0.05200
C1586       C  0.86496848  0.47282323  0.36113079    -0.23600
C1587       C  0.88662411  0.47364079  0.37153345     0.12800
C1588       C  0.88559375  0.45808966  0.39584912    -0.12700
N1589       N  0.81878589  0.42295390  0.41219227     0.64400
H1590       H  0.82604485  0.45561839  0.36904795     0.12300
N1591       N  0.90965115  0.48925891  0.35705139     0.61100
H1592       H  0.90224182  0.45874101  0.40349667     0.08500
O1593       O  0.82895785  0.34554325  0.92191950    -0.40400
O1594       O  0.80618244  0.35353831  0.95273747    -0.39600
O1595       O  0.90487335  0.41680505  0.38596896    -0.39600
O1596       O  0.86820851  0.40131870  0.36640130    -0.37300
O1597       O  0.92704560  0.50441290  0.37417990    -0.38200
O1598       O  0.91419721  0.48369252  0.32998376    -0.34300
O1599       O  0.80733200  0.42986495  0.42994953    -0.35700
O1600       O  0.80815706  0.40149719  0.40139959    -0.40000
C1601       C  0.93631876  0.25518066  0.42262161    -0.13700
C1602       C  0.92274807  0.24063225  0.44850859     0.16700
C1603       C  0.91760247  0.21630288  0.44949942     0.03000
C1604       C  0.92781615  0.20771962  0.42666585    -0.12200
C1605       C  0.94249163  0.22263083  0.40168911    -0.03300
C1606       C  0.94587501  0.24630014  0.39916524     0.02200
C1607       C  0.91449268  0.25134054  0.47427205     0.09000
N1608       N  0.90362792  0.20063306  0.47498353     0.65400
H1609       H  0.92585358  0.18997500  0.42998023     0.18300
N1610       N  0.96029455  0.26206476  0.37401320     0.75900
H1611       H  0.93987367  0.27369107  0.42092274     0.09800
C1612       C  0.93191004  0.27528822  0.98081899     0.03500
C1613       C  0.92519555  0.28740932  0.00309791    -0.05200
C1614       C  0.90070112  0.27909458  0.01004629    -0.23600
C1615       C  0.88165849  0.25545382  0.49865534     0.12800
C1616       C  0.88961969  0.24313134  0.47827210    -0.12700
N1617       N  0.95709348  0.28543088  0.97334351     0.64400
H1618       H  0.93899220  0.30440813  0.01286476     0.12300
N1619       N  0.85645338  0.24827336  0.49880480     0.61100
H1620       H  0.87640649  0.22811568  0.46389031     0.08500
O1621       O  0.97956866  0.28157158  0.38057536    -0.40400
O1622       O  0.95178681  0.25850274  0.34598262    -0.39600
O1623       O  0.88171901  0.18471748  0.47015818    -0.39600
O1624       O  0.91412723  0.19996678  0.50029866    -0.37300
O1625       O  0.84844441  0.25733758  0.47863765    -0.38200
O1626       O  0.84169605  0.22962885  0.51419329    -0.34300
O1627       O  0.96774167  0.30480315  0.95731436    -0.35700
O1628       O  0.96955997  0.27805937  0.98808375    -0.40000
C1629       C  0.11906865  0.21421295  0.22381120    -0.13700
C1630       C  0.09679426  0.19234965  0.22525891     0.16700
C1631       C  0.09429454  0.17199716  0.20845777     0.03000
C1632       C  0.11364239  0.17381387  0.19015243    -0.12200
C1633       C  0.13596721  0.19580784  0.18796375    -0.03300
C1634       C  0.13850323  0.21616676  0.20538053     0.02200
C1635       C  0.07707105  0.19047969  0.24651005     0.09000
N1636       N  0.07231591  0.14912969  0.21034518     0.65400
H1637       H  0.11097872  0.15780348  0.17738057     0.18300
N1638       N  0.16048070  0.23909434  0.20435274     0.75900
H1639       H  0.12137843  0.22989902  0.23710067     0.09800
C1640       C  0.07872735  0.18851971  0.27974000     0.03500
C1641       C  0.06026039  0.18686544  0.29968607    -0.05200
C1642       C  0.03961461  0.18714372  0.28741780    -0.23600
C1643       C  0.03846390  0.19007699  0.25403362     0.12800
C1644       C  0.05692520  0.19133625  0.23390489    -0.12700
N1645       N  0.09911234  0.18802568  0.29359924     0.64400
H1646       H  0.06213544  0.18516059  0.32513476     0.12300
N1647       N  0.01885641  0.19190445  0.24014873     0.61100
H1648       H  0.05570682  0.19333576  0.20838886     0.08500
O1649       O  0.17589399  0.24495352  0.22658901    -0.40400
O1650       O  0.16255920  0.25494128  0.18443656    -0.39600
O1651       O  0.05607689  0.14342255  0.18928948    -0.39600
O1652       O  0.07090704  0.13319139  0.22961677    -0.37300
O1653       O  0.01955911  0.21214794  0.24020941    -0.38200
O1654       O  0.00336939  0.17479164  0.22296045    -0.34300
O1655       O  0.11463468  0.20600640  0.30957204    -0.35700
O1656       O  0.10223189  0.17012936  0.28869309    -0.40000
C1657       C  0.10074439  0.21825389  0.45769480    -0.13700
C1658       C  0.09781912  0.19702418  0.47207123     0.16700
C1659       C  0.07690942  0.17457860  0.46529096     0.03000
C1660       C  0.05893691  0.17385222  0.44519664    -0.12200
C1661       C  0.06097412  0.19528980  0.43235995    -0.03300
C1662       C  0.08258196  0.21760115  0.43792746     0.02200
C1663       C  0.10884461  0.19991839  0.00219144     0.09000
N1664       N  0.06580009  0.15395620  0.98456186     0.65400
H1665       H  0.04253878  0.15651660  0.44145054     0.18300
N1666       N  0.08625800  0.23978863  0.42417607     0.75900
H1667       H  0.11685885  0.23556195  0.46278395     0.09800
C1668       C  0.12268979  0.18841906  0.99716722     0.03500
C1669       C  0.13779145  0.18839355  0.02160779    -0.05200
C1670       C  0.14018784  0.20052130  0.05066531    -0.23600
C1671       C  0.12703209  0.21283078  0.05515308     0.12800
C1672       C  0.11137088  0.21225463  0.03106411    -0.12700
N1673       N  0.13186250  0.17873219  0.46390245     0.64400
H1674       H  0.14823112  0.17937087  0.01753168     0.12300
N1675       N  0.12842507  0.22494745  0.08456191     0.61100
H1676       H  0.10076675  0.22110233  0.03513880     0.08500
O1677       O  0.09743312  0.24695273  0.39801864    -0.40400
O1678       O  0.08248647  0.25420374  0.44076433    -0.39600
O1679       O  0.05984077  0.15031817  0.01363596    -0.39600
O1680       O  0.06311340  0.13639754  0.96739567    -0.37300
O1681       O  0.14257761  0.24759269  0.08689958    -0.38200
O1682       O  0.11264596  0.21400539  0.10585389    -0.34300
O1683       O  0.14543728  0.19299684  0.44249812    -0.35700
O1684       O  0.12454659  0.15628805  0.46149099    -0.40000
C1685       C  0.89467292  0.07877043  0.02604095    -0.13700
C1686       C  0.89094648  0.09771123  0.01579839     0.16700
C1687       C  0.86865529  0.09646356  0.02301055     0.03000
C1688       C  0.85071875  0.07661189  0.04033994    -0.12200
C1689       C  0.85448110  0.05766732  0.05112842    -0.03300
C1690       C  0.87686090  0.05895782  0.04342557     0.02200
C1691       C  0.91394787  0.11377811  0.49879042     0.09000
N1692       N  0.86432303  0.11570334  0.01391775     0.65400
H1693       H  0.83405641  0.07647194  0.04615669     0.18300
N1694       N  0.88178664  0.04012462  0.05250138     0.75900
H1695       H  0.90910824  0.06989920  0.51077020     0.09800
C1696       C  0.93832678  0.12718026  0.50932917     0.03500
C1697       C  0.95641719  0.14424209  0.48889668    -0.05200
C1698       C  0.95066944  0.14737503  0.45745728    -0.23600
C1699       C  0.92615065  0.13406280  0.44722233     0.12800
C1700       C  0.90808316  0.11793558  0.46806293    -0.12700
N1701       N  0.94507797  0.12297668  0.54024486     0.64400
H1702       H  0.97513765  0.15392270  0.49693455     0.12300
N1703       N  0.91940107  0.13579428  0.41511742     0.61100
H1704       H  0.88951567  0.10754844  0.45954439     0.08500
O1705       O  0.88842079  0.02667104  0.55882784    -0.40400
O1706       O  0.87507346  0.02189006  0.03449700    -0.39600
O1707       O  0.84724367  0.11150235  0.99480514    -0.39600
O1708       O  0.87500149  0.13574300  0.02867522    -0.37300
O1709       O  0.92017002  0.12196223  0.39401835    -0.38200
O1710       O  0.90704839  0.14602802  0.40987236    -0.34300
O1711       O  0.95139203  0.10713146  0.54368133    -0.35700
O1712       O  0.93661346  0.14711830  0.05863856    -0.40000
C1713       C  0.89099257  0.10265356  0.28659867    -0.13700
C1714       C  0.89684750  0.08676364  0.27069285     0.16700
C1715       C  0.91912281  0.08783592  0.27768983     0.03000
C1716       C  0.93563200  0.10573337  0.29863945    -0.12200
C1717       C  0.93078062  0.12321234  0.31210972    -0.03300
C1718       C  0.90770837  0.12086133  0.30700200     0.02200
C1719       C  0.88112398  0.07201532  0.24376994     0.09000
N1720       N  0.92631901  0.07254926  0.26152201     0.65400
H1721       H  0.95316554  0.10706081  0.30236853     0.18300
N1722       N  0.90099700  0.13691577  0.32192591     0.75900
H1723       H  0.87372658  0.10169162  0.28184489     0.09800
C1724       C  0.87064559  0.04651397  0.24193022     0.03500
C1725       C  0.85710152  0.03409637  0.21476448    -0.05200
C1726       C  0.85320491  0.04649923  0.18962125    -0.23600
C1727       C  0.86358768  0.07197396  0.19178126     0.12800
C1728       C  0.87740514  0.08439578  0.21858195    -0.12700
N1729       N  0.87253592  0.03285930  0.26790434     0.64400
H1730       H  0.84878436  0.01450912  0.21391446     0.12300
N1731       N  0.86102489  0.08568350  0.16652898     0.61100
H1732       H  0.88567630  0.10402080  0.21949218     0.08500
O1733       O  0.88681039  0.12944696  0.34552517    -0.40400
O1734       O  0.90406369  0.15553703  0.30707289    -0.39600
O1735       O  0.93171974  0.07598110  0.23226336    -0.39600
O1736       O  0.93190547  0.05919571  0.27757800    -0.37300
O1737       O  0.84726403  0.09455052  0.17016590    -0.38200
O1738       O  0.87553735  0.09243505  0.14326965    -0.34300
O1739       O  0.86316799  0.03274325  0.29451192    -0.35700
O1740       O  0.87934630  0.01756071  0.26268453    -0.40000
C1741       C  0.02355847  0.44058506  0.13572295    -0.13700
C1742       C  0.00599422  0.41590173  0.13350078     0.16700
C1743       C  0.00662091  0.39945903  0.15573213     0.03000
C1744       C  0.02560088  0.40758095  0.17816885    -0.12200
C1745       C  0.04427191  0.43191241  0.17865140    -0.03300
C1746       C  0.04270426  0.44863486  0.15785051     0.02200
C1747       C  0.98877981  0.40714987  0.10595832     0.09000
N1748       N  0.98891742  0.37416025  0.15450100     0.65400
H1749       H  0.02691221  0.39441030  0.19324132     0.18300
N1750       N  0.06184577  0.47337296  0.15656700     0.75900
H1751       H  0.02339979  0.45337168  0.11875016     0.09800
C1752       C  0.97120190  0.41428959  0.10166149     0.03500
C1753       C  0.95338209  0.40316592  0.07780084    -0.05200
C1754       C  0.95266295  0.38482834  0.05811784    -0.23600
C1755       C  0.97176932  0.37964475  0.06024575     0.12800
C1756       C  0.98968074  0.39086928  0.08395801    -0.12700
N1757       N  0.96959955  0.43078896  0.12345030     0.64400
H1758       H  0.93846844  0.40687342  0.07708799     0.12300
N1759       N  0.97151800  0.36081053  0.04122972     0.61100
H1760       H  0.00358278  0.38582292  0.08632698     0.08500
O1761       O  0.06091905  0.48902066  0.17423836    -0.40400
O1762       O  0.07640900  0.48031737  0.13337829    -0.39600
O1763       O  0.99469879  0.35918319  0.14358489    -0.39600
O1764       O  0.96909362  0.36644154  0.16918043    -0.37300
O1765       O  0.97828063  0.38956917  0.49941138    -0.38200
O1766       O  0.96326141  0.33983621  0.05291631    -0.34300
O1767       O  0.97642334  0.45228446  0.11475366    -0.35700
O1768       O  0.95753738  0.42277841  0.14885040    -0.40000
C1769       C  0.05969213  0.31544259  0.32142585    -0.13700
C1770       C  0.06579647  0.31252473  0.29005598     0.16700
C1771       C  0.06202873  0.28961747  0.28058328     0.03000
C1772       C  0.05086482  0.26986156  0.30154035    -0.12200
C1773       C  0.04339111  0.27226731  0.33238648    -0.03300
C1774       C  0.04878925  0.29564983  0.34280390     0.02200
C1775       C  0.07621916  0.33368933  0.26783741     0.09000
N1776       N  0.06939926  0.28607523  0.24974242     0.65400
H1777       H  0.04715753  0.25214497  0.29314488     0.18300
N1778       N  0.04262479  0.29950310  0.37432629     0.75900
H1779       H  0.06316229  0.33320198  0.32918957     0.09800
C1780       C  0.06247926  0.33572674  0.24257720     0.03500
C1781       C  0.07204273  0.35736187  0.22463793    -0.05200
C1782       C  0.09501206  0.37726414  0.23185131    -0.23600
C1783       C  0.10918180  0.37453651  0.25587494     0.12800
C1784       C  0.09978071  0.35291969  0.27346686    -0.12700
N1785       N  0.03793906  0.31702401  0.23697676     0.64400
H1786       H  0.06058670  0.35939902  0.20711695     0.12300
N1787       N  0.13264894  0.39425295  0.26412198     0.61100
H1788       H  0.11058551  0.35153131  0.29256470     0.08500
O1789       O  0.03268135  0.31228808  0.37827109    -0.40400
O1790       O  0.05134831  0.29434084  0.39823308    -0.39600
O1791       O  0.09053513  0.28927605  0.24623727    -0.39600
O1792       O  0.05351594  0.27458907  0.22858396    -0.37300
O1793       O  0.13536604  0.40578673  0.28981061    -0.38200
O1794       O  0.15111128  0.39646937  0.24982605    -0.34300
O1795       O  0.02141738  0.31497935  0.25559053    -0.35700
O1796       O  0.03220042  0.30586341  0.21058349    -0.40000
C1797       C  0.18877224  0.45818258  0.34613177    -0.13700
C1798       C  0.20756357  0.45592291  0.33173134     0.16700
C1799       C  0.20889375  0.45585228  0.29824257     0.03000
C1800       C  0.19234702  0.45904323  0.27971004    -0.12200
C1801       C  0.17392717  0.46211093  0.29379120    -0.03300
C1802       C  0.17179077  0.46098283  0.32742472     0.02200
C1803       C  0.22647917  0.45484920  0.35157470     0.09000
N1804       N  0.22722564  0.45285198  0.28265646     0.65400
H1805       H  0.19400350  0.45917304  0.25394190     0.18300
N1806       N  0.15316575  0.46352432  0.34294998     0.75900
H1807       H  0.18753033  0.45814743  0.37192757     0.09800
C1808       C  0.24770080  0.47629824  0.36062412     0.03500
C1809       C  0.26573495  0.47502810  0.37853064    -0.05200
C1810       C  0.26307111  0.45254099  0.38824218    -0.23600
C1811       C  0.24181949  0.43097858  0.37866208     0.12800
C1812       C  0.22389808  0.43231887  0.36026481    -0.12700
N1813       N  0.25100960  0.49958335  0.35215140     0.64400
H1814       H  0.28175769  0.49188106  0.38538302     0.12300
N1815       N  0.23743873  0.40765852  0.38886862     0.61100
H1816       H  0.20768646  0.41570395  0.35320971     0.08500
O1817       O  0.15753713  0.48421988  0.35243449    -0.40400
O1818       O  0.13415954  0.44479893  0.35222964    -0.39600
O1819       O  0.22216235  0.43211136  0.27245392    -0.39600
O1820       O  0.24658848  0.47134951  0.27376373    -0.37300
O1821       O  0.22703919  0.39923099  0.41523200    -0.38200
O1822       O  0.23995617  0.39389557  0.36935790    -0.34300
O1823       O  0.24279009  0.50978323  0.37010080    -0.35700
O1824       O  0.26511494  0.51142169  0.32960631    -0.40000
C1825       C  0.22759151  0.43562894  0.06069041    -0.13700
C1826       C  0.23862572  0.45353020  0.08442764     0.16700
C1827       C  0.26401856  0.46882893  0.08420138     0.03000
C1828       C  0.27769700  0.46704175  0.05928897    -0.12200
C1829       C  0.26666725  0.44978912  0.03460524    -0.03300
C1830       C  0.24133038  0.43342764  0.03606731     0.02200
C1831       C  0.22310922  0.45698646  0.10782653     0.09000
N1832       N  0.27620082  0.48598797  0.10938066     0.65400
H1833       H  0.29717319  0.47933456  0.05933052     0.18300
N1834       N  0.23636931  0.41662603  0.51611640     0.75900
H1835       H  0.20805533  0.42364718  0.06084402     0.09800
C1836       C  0.22164179  0.47849097  0.10814597     0.03500
C1837       C  0.20594074  0.48074285  0.12954889    -0.05200
C1838       C  0.19045955  0.46132919  0.14929730    -0.23600
C1839       C  0.19213961  0.43994177  0.14920886     0.12800
C1840       C  0.20860536  0.43806517  0.12881558    -0.12700
N1841       N  0.23397733  0.49705320  0.08468486     0.64400
H1842       H  0.20430164  0.49695339  0.12869858     0.12300
N1843       N  0.17718751  0.41995485  0.16956934     0.61100
H1844       H  0.20962608  0.42150383  0.12874289     0.08500
O1845       O  0.22246303  0.41354455  0.49279305    -0.40400
O1846       O  0.23727642  0.39864650  0.52736812    -0.39600
O1847       O  0.27897531  0.47853779  0.13615632    -0.39600
O1848       O  0.28822220  0.50840285  0.10311185    -0.37300
O1849       O  0.15813459  0.40208878  0.15844224    -0.38200
O1850       O  0.18549564  0.41792983  0.19610293    -0.34300
O1851       O  0.22906682  0.49198605  0.05545110    -0.35700
O1852       O  0.24604764  0.51905598  0.09321329    -0.40000
C1853       C  0.14840647  0.58523473  0.05311088    -0.13700
C1854       C  0.12678880  0.56328959  0.05852817     0.16700
C1855       C  0.10505598  0.56012967  0.04472810     0.03000
C1856       C  0.10538867  0.57870670  0.02583985    -0.12200
C1857       C  0.12705243  0.60080339  0.02049764    -0.03300
C1858       C  0.14876263  0.60383540  0.03448899     0.02200
C1859       C  0.12735480  0.54519192  0.08097610     0.09000
N1860       N  0.08234210  0.53863466  0.05071924     0.65400
H1861       H  0.08852173  0.57579390  0.01533330     0.18300
N1862       N  0.17090400  0.61814571  0.51528124     0.75900
H1863       H  0.16517681  0.58814047  0.06396501     0.09800
C1864       C  0.12315696  0.52204982  0.07119984     0.03500
C1865       C  0.12545543  0.50650735  0.09336513    -0.05200
C1866       C  0.13194822  0.51353569  0.12548677    -0.23600
C1867       C  0.13539166  0.53656664  0.13516576     0.12800
C1868       C  0.13329347  0.55197659  0.11300522    -0.12700
N1869       N  0.11750480  0.51442916  0.03864307     0.64400
H1870       H  0.12255124  0.48903473  0.08520355     0.12300
N1871       N  0.14047198  0.54455749  0.16767454     0.61100
H1872       H  0.13626409  0.56952597  0.12100438     0.08500
O1873       O  0.17799784  0.61374994  0.48927281    -0.40400
O1874       O  0.18583630  0.63549245  0.53267019    -0.39600
O1875       O  0.07262435  0.53553461  0.07785728    -0.39600
O1876       O  0.06999040  0.52535306  0.02763152    -0.37300
O1877       O  0.16192894  0.55973886  0.17600186    -0.38200
O1878       O  0.12314840  0.53968503  0.18650698    -0.34300
O1879       O  0.13435425  0.52225610  0.01829953    -0.35700
O1880       O  0.09703631  0.49646204  0.03167842    -0.40000
C1881       C  0.10279879  0.53524614  0.31395556    -0.13700
C1882       C  0.12113243  0.55961233  0.31072053     0.16700
C1883       C  0.13912307  0.56553424  0.28712700     0.03000
C1884       C  0.13942151  0.54702183  0.26920501    -0.12200
C1885       C  0.12150125  0.52253638  0.27320207    -0.03300
C1886       C  0.10234242  0.51692110  0.29488990     0.02200
C1887       C  0.12284508  0.57780276  0.33472236     0.09000
N1888       N  0.15721906  0.59024214  0.28108521     0.65400
H1889       H  0.15387324  0.55193100  0.25196057     0.18300
N1890       N  0.08263272  0.49264248  0.29869292     0.75900
H1891       H  0.08905525  0.53007845  0.33230450     0.09800
C1892       C  0.10214116  0.57880175  0.34497652     0.03500
C1893       C  0.10398602  0.59367838  0.37074839    -0.05200
C1894       C  0.12627635  0.60840597  0.38613836    -0.23600
C1895       C  0.14712030  0.60797431  0.37546169     0.12800
C1896       C  0.14513534  0.59243532  0.35042831    -0.12700
N1897       N  0.07914302  0.56513110  0.32927383     0.64400
H1898       H  0.08791744  0.59411937  0.37828307     0.12300
N1899       N  0.17018487  0.62224512  0.39074662     0.61100
H1900       H  0.16101455  0.59124525  0.34403726     0.08500
O1901       O  0.06380552  0.48531242  0.28164995    -0.40400
O1902       O  0.08221407  0.48027784  0.32253407    -0.39600
O1903       O  0.17945644  0.59669965  0.28358030    -0.39600
O1904       O  0.15113855  0.60449133  0.26845813    -0.37300
O1905       O  0.18579838  0.64202511  0.37829676    -0.38200
O1906       O  0.17647600  0.61307953  0.41296453    -0.34300
O1907       O  0.06083601  0.55013775  0.34503115    -0.35700
O1908       O  0.07617746  0.57136129  0.30175263    -0.40000
Fe1909     Fe  0.16114041  0.49499373  0.70745779     1.65800
Fe1910     Fe  0.11849845  0.44348070  0.67134163     1.73200
Fe1911     Fe  0.10738749  0.45658625  0.74350676     1.54400
O1912       O  0.13509823  0.45859984  0.77355236    -0.81000
O1913       O  0.08222519  0.42922895  0.68012252    -0.79300
O1914       O  0.17018917  0.48697791  0.75155991    -0.83500
O1915       O  0.14879712  0.51627048  0.72781485    -0.78400
O1916       O  0.09542616  0.42003709  0.73779544    -0.80200
O1917       O  0.11891440  0.47184066  0.64420299    -0.82900
C1918       C  0.13169406  0.51241152  0.74659042     0.97900
C1919       C  0.15839989  0.47131052  0.77310637     1.05300
O1920       O  0.12947514  0.46543085  0.70767072    -1.11900
O1921       O  0.15204015  0.45287291  0.65395441    -0.74300
O1922       O  0.17962759  0.47916781  0.68727368    -0.77800
O1923       O  0.11573472  0.49128044  0.75482025    -0.78500
C1924       C  0.17377932  0.46561866  0.66294713     0.96800
O1925       O  0.15287265  0.50414125  0.66331654    -0.76500
O1926       O  0.11833935  0.41624103  0.70092058    -0.81600
C1927       C  0.07091183  0.43952675  0.69017574     0.99400
C1928       C  0.10624524  0.40927384  0.72709986     1.05300
O1929       O  0.07927484  0.45432716  0.71365293    -0.77300
C1930       C  0.13448938  0.49480325  0.64447189     1.03600
Fe1931     Fe  0.99309789  0.16455214  0.87017602     1.65800
Fe1932     Fe  0.00340307  0.21713381  0.90329642     1.73200
Fe1933     Fe  0.98169520  0.20240798  0.82737644     1.54400
O1934       O  0.00430384  0.19248538  0.80110487    -0.81000
O1935       O  0.97420635  0.22198978  0.90042413    -0.79300
O1936       O  0.01962282  0.17683851  0.83620852    -0.83500
O1937       O  0.96747899  0.14593835  0.83504518    -0.78400
O1938       O  0.00988237  0.23694111  0.82599558    -0.80200
O1939       O  0.98133970  0.18701033  0.93404906    -0.82900
C1940       C  0.95097396  0.14876290  0.82242538     0.97900
C1941       C  0.01984241  0.18587413  0.80890726     1.05300
O1942       O  0.99283239  0.19509344  0.86688023    -1.11900
O1943       O  0.03441991  0.21513426  0.91062109    -0.74300
O1944       O  0.01908170  0.17563592  0.90596107    -0.77800
O1945       O  0.95132392  0.16871527  0.82420743    -0.78500
C1946       C  0.03556080  0.19615092  0.91588625     0.96800
O1947       O  0.96629049  0.15320470  0.90373225    -0.76500
O1948       O  0.02492200  0.24867642  0.87500677    -0.81600
C1949       C  0.95890143  0.21997859  0.87957330     0.99400
C1950       C  0.02458070  0.25297575  0.84510651     1.05300
O1951       O  0.95929492  0.21349324  0.85075006    -0.77300
C1952       C  0.96570688  0.16441222  0.92869873     1.03600
Fe1953     Fe  0.83493401  0.32778728  0.54245988     1.65800
Fe1954     Fe  0.87840087  0.32032487  0.58031842     1.73200
Fe1955     Fe  0.88755439  0.33910934  0.99673828     1.54400
O1956       O  0.85543332  0.31582353  0.97057029    -0.81000
O1957       O  0.91260607  0.34870637  0.57390309    -0.79300
O1958       O  0.82139037  0.30247575  0.50605373    -0.83500
O1959       O  0.84453222  0.35580129  0.51059714    -0.78400
O1960       O  0.89315440  0.30890793  0.50610013    -0.80200
O1961       O  0.87222193  0.34502001  0.60783567    -0.82900
C1962       C  0.86518611  0.37034062  0.98789809     0.97900
C1963       C  0.83321557  0.30135910  0.97836026     1.05300
O1964       O  0.86606945  0.32791673  0.54129443    -1.11900
O1965       O  0.84573772  0.29104006  0.59296071    -0.74300
O1966       O  0.81819405  0.29972041  0.57482395    -0.77800
O1967       O  0.88441160  0.36920462  0.98926879    -0.78500
C1968       C  0.82412290  0.28692076  0.59159022     0.96800
O1969       O  0.84769520  0.35337254  0.57854421    -0.76500
O1970       O  0.88635344  0.29556607  0.55630030    -0.81600
C1971       C  0.92492338  0.36384025  0.55246265     0.99400
C1972       C  0.89219187  0.29440382  0.52737447     1.05300
O1973       O  0.91751018  0.36185223  0.52362970    -0.77300
C1974       C  0.86165904  0.35747653  0.60249713     1.03600
Fe1975     Fe  0.83795163  0.50430405  0.78907881     1.65800
Fe1976     Fe  0.86639157  0.56478932  0.79427693     1.73200
Fe1977     Fe  0.89893586  0.53591069  0.78847796     1.54400
O1978       O  0.88616650  0.50454450  0.81632261    -0.81000
O1979       O  0.88631616  0.57714478  0.75365605    -0.79300
O1980       O  0.84786372  0.49304914  0.82923114    -0.83500
O1981       O  0.85202351  0.48739295  0.76017775    -0.78400
O1982       O  0.91050722  0.55587686  0.83007664    -0.80200
O1983       O  0.83510716  0.55141759  0.76590463    -0.82900
C1984       C  0.87102017  0.49386475  0.74345191     0.97900
C1985       C  0.86735582  0.49247105  0.83366713     1.05300
O1986       O  0.86789815  0.53506339  0.79076920    -1.11900
O1987       O  0.84539569  0.55338019  0.83504785    -0.74300
O1988       O  0.81906450  0.51631242  0.81773540    -0.77800
O1989       O  0.88954619  0.51503465  0.74659206    -0.78500
C1990       C  0.82444641  0.53450610  0.83584539     0.96800
O1991       O  0.82738951  0.51494459  0.74884573    -0.76500
O1992       O  0.89860208  0.58295296  0.82145149    -0.81600
C1993       C  0.90842118  0.58288459  0.75192611     0.99400
C1994       C  0.91331715  0.57698131  0.83369610     1.05300
O1995       O  0.91599515  0.56896027  0.76266430    -0.77300
C1996       C  0.82472920  0.53344167  0.74669859     1.03600
Fe1997     Fe  0.15868619  0.66497369  0.95609265     1.65800
Fe1998     Fe  0.09715877  0.63295778  0.95459911     1.73200
Fe1999     Fe  0.12746261  0.69494327  0.94903249     1.54400
O2000       O  0.15661762  0.71271827  0.98091050    -0.81000
O2001       O  0.08283051  0.64107399  0.91549517    -0.79300
O2002       O  0.16727299  0.68558130  0.99642562    -0.83500
O2003       O  0.17753222  0.69635847  0.92856265    -0.78400
O2004       O  0.10401079  0.68635180  0.98679904    -0.80200
O2005       O  0.11107800  0.61752027  0.92310431    -0.82900
C2006       C  0.17246441  0.70953341  0.91086249     0.97900
C2007       C  0.16811485  0.70587839  0.99933484     1.05300
O2008       O  0.12751816  0.66418031  0.95314968    -1.11900
O2009       O  0.10722272  0.62288363  0.50067616    -0.74300
O2010       O  0.14634654  0.63406373  0.98422767    -0.77800
O2011       O  0.15127019  0.70690015  0.91065374    -0.78500
C2012       C  0.12650597  0.62162546  0.50267666     0.96800
O2013       O  0.15079804  0.64407778  0.91602479    -0.76500
O2014       O  0.07982679  0.64597320  0.98500809    -0.81600
C2015       C  0.08251867  0.66007976  0.90694037     0.99400
C2016       C  0.08266229  0.66726346  0.50119170     1.05300
O2017       O  0.09771053  0.68112194  0.91763076    -0.77300
C2018       C  0.13122138  0.62486940  0.90864349     1.03600
Fe2019     Fe  0.99860397  0.82457949  0.61139542     1.65800
Fe2020     Fe  0.02720153  0.79188270  0.61523805     1.73200
Fe2021     Fe  0.96588312  0.76374327  0.61605961     1.54400
O2022       O  0.95107478  0.77982064  0.64485003    -0.81000
O2023       O  0.01607341  0.76884861  0.57654708    -0.79300
O2024       O  0.97953901  0.81852411  0.65295861    -0.83500
O2025       O  0.96638536  0.81119430  0.58469589    -0.78400
O2026       O  0.97588037  0.75355023  0.65709996    -0.80200
O2027       O  0.04488154  0.82113179  0.58375310    -0.82900
C2028       C  0.95179772  0.79128300  0.57068473     0.97900
C2029       C  0.95956678  0.79985261  0.66012307     1.05300
O2030       O  0.99720372  0.79331968  0.61418720    -1.11900
O2031       O  0.04048504  0.81518934  0.65402339    -0.74300
O2032       O  0.03079188  0.84269407  0.63803072    -0.77800
O2033       O  0.95308518  0.77211654  0.57516412    -0.78500
C2034       C  0.04329630  0.83647429  0.65547451     0.96800
O2035       O  0.01777088  0.83202143  0.56983845    -0.76500
O2036       O  0.01322430  0.76132450  0.64547795    -0.81600
C2037       C  0.99703248  0.74810616  0.57485356     0.99400
C2038       C  0.99289263  0.74869562  0.65945930     1.05300
O2039       O  0.97740234  0.74337214  0.58909313    -0.77300
C2040       C  0.03784310  0.83259697  0.56563412     1.03600
Fe2041     Fe  0.33176326  0.83046665  0.70344374     1.65800
Fe2042     Fe  0.32451757  0.87328831  0.66547084     1.73200
Fe2043     Fe  0.34562980  0.88242929  0.74227238     1.54400
O2044       O  0.32382453  0.85169548  0.77195551    -0.81000
O2045       O  0.35521438  0.90645939  0.66596786    -0.79300
O2046       O  0.30705706  0.81928021  0.73947280    -0.83500
O2047       O  0.35930523  0.83928474  0.73608465    -0.78400
O2048       O  0.31689924  0.88840100  0.74252822    -0.80200
O2049       O  0.34450088  0.86196195  0.63584051    -0.82900
C2050       C  0.37633596  0.85887751  0.74751939     0.97900
C2051       C  0.30801306  0.82930741  0.76620487     1.05300
O2052       O  0.33395022  0.86231114  0.70373217    -1.11900
O2053       O  0.29231353  0.84138502  0.66005511    -0.74300
O2054       O  0.30370054  0.81444661  0.67046390    -0.77800
O2055       O  0.37581462  0.87851312  0.74625911    -0.78500
C2056       C  0.28880576  0.82002453  0.65849156     0.96800
O2057       O  0.35681024  0.84181737  0.66793310    -0.76500
O2058       O  0.30448042  0.88597950  0.69194729    -0.81600
C2059       C  0.36977586  0.92066862  0.68683760     0.99400
C2060       C  0.30302347  0.88961372  0.72178768     1.05300
O2061       O  0.36793235  0.91505880  0.71650272    -0.77300
C2062       C  0.35834516  0.85303524  0.64217035     1.03600
Fe2063     Fe  0.16568057  0.99118284  0.86789086     1.65800
Fe2064     Fe  0.21720409  0.00344597  0.83012854     1.73200
Fe2065     Fe  0.20870636  0.98566057  0.90797838     1.54400
O2066       O  0.19673199  0.00600869  0.93571993    -0.81000
O2067       O  0.22325917  0.97480403  0.83209601    -0.79300
O2068       O  0.17752683  0.01797309  0.90151679    -0.83500
O2069       O  0.15033219  0.96477975  0.90304316    -0.78400
O2070       O  0.24115028  0.01677002  0.90633674    -0.80200
O2071       O  0.18627870  0.98115263  0.80114970    -0.82900
C2072       C  0.15603068  0.95039282  0.91642356     0.97900
C2073       C  0.18831977  0.02003793  0.92792932     1.05300
O2074       O  0.19740327  0.99327022  0.86863736    -1.11900
O2075       O  0.21357421  0.03351860  0.82459032    -0.74300
O2076       O  0.17426854  0.01738831  0.83289795    -0.77800
O2077       O  0.17715635  0.95340390  0.91413249    -0.78500
C2078       C  0.19416476  0.03427489  0.82201801     0.96800
O2079       O  0.15408121  0.96459154  0.83386354    -0.76500
O2080       O  0.24988955  0.02634698  0.85501665    -0.81600
C2081       C  0.22609316  0.96292473  0.85429647     0.99400
C2082       C  0.25532916  0.03004340  0.88470204     1.05300
O2083       O  0.22261376  0.96565685  0.88380807    -0.77300
C2084       C  0.16407672  0.96530993  0.80729090     1.03600
Fe2085     Fe  0.49638894  0.15756666  0.54043266     1.65800
Fe2086     Fe  0.44437540  0.11462155  0.57391862     1.73200
Fe2087     Fe  0.45318365  0.10219044  0.99844809     1.54400
O2088       O  0.46356625  0.13370250  0.96948748    -0.81000
O2089       O  0.43914809  0.08040437  0.57138687    -0.79300
O2090       O  0.47949626  0.16582505  0.00278592    -0.83500
O2091       O  0.51518893  0.15073093  0.50515985    -0.78400
O2092       O  0.42442398  0.10077759  0.49697613    -0.80200
O2093       O  0.47475264  0.12263716  0.60414443    -0.82900
C2094       C  0.50662381  0.12343626  0.99423352     0.97900
C2095       C  0.47011989  0.15604482  0.97595585     1.05300
O2096       O  0.46629544  0.12624625  0.53761802    -1.11900
O2097       O  0.44610541  0.14724018  0.58137850    -0.74300
O2098       O  0.48523800  0.17265874  0.57615884    -0.77800
O2099       O  0.48627094  0.10439822  0.99652480    -0.78500
C2100       C  0.46461128  0.16754502  0.58684410     0.96800
O2101       O  0.50850591  0.14286804  0.57419919    -0.76500
O2102       O  0.41309615  0.10545994  0.54558596    -0.81600
C2103       C  0.44193144  0.06726499  0.55115781     0.99400
C2104       C  0.40909396  0.10132537  0.51558714     1.05300
O2105       O  0.44902010  0.07427606  0.52255342    -0.77300
C2106       C  0.49748235  0.13040827  0.59875937     1.03600
Fe2107     Fe  0.82330981  0.99031708  0.61559553     1.65800
Fe2108     Fe  0.79432213  0.02217905  0.61116435     1.73200
Fe2109     Fe  0.76262482  0.96106529  0.62026879     1.54400
O2110       O  0.77483113  0.94116631  0.59388575    -0.81000
O2111       O  0.77431265  0.01553769  0.65164883    -0.79300
O2112       O  0.81168546  0.96826118  0.57613261    -0.83500
O2113       O  0.80991454  0.96016878  0.64620876    -0.78400
O2114       O  0.75055081  0.96778988  0.57837164    -0.80200
O2115       O  0.82521252  0.04021076  0.63994518    -0.82900
C2116       C  0.79180850  0.94918591  0.66493760     0.97900
C2117       C  0.79238527  0.94775632  0.57435521     1.05300
O2118       O  0.79336377  0.99128259  0.61565752    -1.11900
O2119       O  0.81551899  0.03193085  0.57059629    -0.74300
O2120       O  0.84185351  0.02052733  0.58577751    -0.77800
O2121       O  0.77338256  0.95205846  0.66254874    -0.78500
C2122       C  0.83635215  0.03378093  0.56889420     0.96800
O2123       O  0.83531399  0.01257701  0.65466113    -0.76500
O2124       O  0.76254133  0.00719039  0.58295797    -0.81600
C2125       C  0.75254580  0.99877855  0.65506542     0.99400
C2126       C  0.74833853  0.98606416  0.57143891     1.05300
O2127       O  0.74523625  0.97718640  0.64512078    -0.77300
C2128       C  0.83677827  0.03319100  0.65793153     1.03600
Fe2129     Fe  0.50392357  0.83350661  0.96027551     1.65800
Fe2130     Fe  0.56474235  0.86535139  0.95135909     1.73200
Fe2131     Fe  0.53218961  0.89488960  0.95781756     1.54400
O2132       O  0.50141057  0.87953406  0.92831563    -0.81000
O2133       O  0.58100581  0.89088439  0.98674791    -0.79300
O2134       O  0.49058959  0.84050371  0.91971635    -0.83500
O2135       O  0.48564131  0.84646696  0.98786843    -0.78400
O2136       O  0.55321960  0.90839448  0.91764152    -0.80200
O2137       O  0.55517892  0.83854330  0.98638917    -0.82900
C2138       C  0.49261212  0.85980223  0.50297434     0.97900
C2139       C  0.48931287  0.85940318  0.91325545     1.05300
O2140       O  0.53385264  0.86483653  0.95640495    -1.11900
O2141       O  0.55218292  0.83940241  0.91503035    -0.74300
O2142       O  0.51554089  0.81360523  0.93317459    -0.77800
O2143       O  0.51274346  0.87925636  0.49876501    -0.78500
C2144       C  0.53340991  0.81837489  0.91515462     0.96800
O2145       O  0.51689304  0.82620710  0.00110140    -0.76500
O2146       O  0.57824924  0.89321325  0.91704590    -0.81600
C2147       C  0.58023644  0.90970301  0.99518618     0.99400
C2148       C  0.57177861  0.90814626  0.90692416     1.05300
O2149       O  0.56344290  0.91388733  0.98623638    -0.77300
C2150       C  0.53726280  0.82736184  0.00545918     1.03600
Fe2151     Fe  0.66325902  0.15351342  0.79467638     1.65800
Fe2152     Fe  0.63443069  0.09274937  0.78760276     1.73200
Fe2153     Fe  0.69546635  0.12498717  0.79528444     1.54400
O2154       O  0.71286311  0.15717148  0.76892692    -0.81000
O2155       O  0.64209146  0.07880189  0.82726315    -0.79300
O2156       O  0.68453228  0.16641424  0.75460601    -0.83500
O2157       O  0.69403198  0.17128971  0.82322905    -0.78400
O2158       O  0.68847315  0.10686326  0.75293997    -0.80200
O2159       O  0.61559681  0.10384067  0.81776641    -0.82900
C2160       C  0.70698635  0.16544134  0.84014336     0.97900
C2161       C  0.70536115  0.16842102  0.75109577     1.05300
O2162       O  0.66437766  0.12361759  0.79259226    -1.11900
O2163       O  0.62393230  0.10475973  0.74756448    -0.74300
O2164       O  0.63221743  0.14080421  0.76621649    -0.77800
O2165       O  0.70496764  0.14451292  0.83779037    -0.78500
C2166       C  0.62064987  0.12302008  0.74715092     0.96800
O2167       O  0.64251572  0.14105141  0.83501292    -0.76500
O2168       O  0.65053097  0.07698673  0.75915584    -0.81600
C2169       C  0.66050277  0.07623742  0.83088782     0.99400
C2170       C  0.67207820  0.08501884  0.74862494     1.05300
O2171       O  0.68135813  0.09161788  0.81994188    -0.77300
C2172       C  0.62282194  0.12103000  0.83826064     1.03600
Fe2173     Fe  0.48664823  0.32319262  0.78901482     1.65800
Fe2174     Fe  0.45669624  0.35399018  0.78887203     1.73200
Fe2175     Fe  0.42548496  0.29240099  0.79326576     1.54400
O2176       O  0.43807145  0.27519812  0.76215562    -0.81000
O2177       O  0.43744630  0.34530849  0.83053005    -0.79300
O2178       O  0.47596453  0.30299966  0.74785333    -0.83500
O2179       O  0.47421366  0.29137381  0.81568870    -0.78400
O2180       O  0.41141432  0.30088291  0.75423993    -0.80200
O2181       O  0.48801046  0.37126742  0.81637879    -0.82900
C2182       C  0.45579756  0.27802494  0.83286304     0.97900
C2183       C  0.45670076  0.28260223  0.74423934     1.05300
O2184       O  0.45606805  0.32308893  0.79006513    -1.11900
O2185       O  0.47750588  0.36561769  0.74737634    -0.74300
O2186       O  0.50462997  0.35516023  0.76199861    -0.77800
O2187       O  0.43710572  0.28056612  0.83246710    -0.78500
C2188       C  0.49881649  0.36846443  0.74565779     0.96800
O2189       O  0.49768254  0.34325267  0.83049495    -0.76500
O2190       O  0.42420007  0.34014685  0.76279095    -0.81600
C2191       C  0.41583629  0.32815122  0.83419463     0.99400
C2192       C  0.40914805  0.31952870  0.75077550     1.05300
O2193       O  0.40856660  0.30684969  0.82290765    -0.77300
C2194       C  0.49918578  0.36383362  0.83431690     1.03600
Fe2195     Fe  0.16854524  0.16776485  0.62052425     1.65800
Fe2196     Fe  0.22966172  0.19829300  0.61836277     1.73200
Fe2197     Fe  0.19818283  0.22865166  0.62602110     1.54400
O2198       O  0.16845499  0.21627259  0.59485700    -0.81000
O2199       O  0.24382167  0.22021725  0.65794249    -0.79300
O2200       O  0.15857997  0.17855320  0.57996607    -0.83500
O2201       O  0.14947201  0.17982548  0.64833621    -0.78400
O2202       O  0.22022019  0.24344627  0.58730651    -0.80200
O2203       O  0.21691431  0.16802356  0.64869273    -0.82900
C2204       C  0.15474807  0.19800583  0.66622983     0.97900
C2205       C  0.15761992  0.19792428  0.57623371     1.05300
O2206       O  0.19906620  0.19844586  0.62174449    -1.11900
O2207       O  0.21889966  0.17605894  0.57827070    -0.74300
O2208       O  0.18140104  0.14956818  0.59258875    -0.77800
O2209       O  0.17566151  0.21678355  0.66545774    -0.78500
C2210       C  0.20008649  0.15523385  0.57581462     0.96800
O2211       O  0.17829415  0.15649803  0.66078623    -0.76500
O2212       O  0.24575967  0.22888642  0.58826264    -0.81600
C2213       C  0.24358932  0.23916923  0.66715455     0.99400
C2214       C  0.23928221  0.24372668  0.57777029     1.05300
O2215       O  0.22839275  0.24504700  0.65649824    -0.77300
C2216       C  0.19766900  0.15563203  0.66523399     1.03600
Fe2217     Fe  0.32028802  0.48229612  0.96057109     1.65800
Fe2218     Fe  0.35415760  0.45569911  0.95528957     1.73200
Fe2219     Fe  0.29285178  0.42129681  0.95630692     1.54400
O2220       O  0.27466762  0.43241630  0.98828801    -0.81000
O2221       O  0.34388269  0.43607263  0.91399136    -0.79300
O2222       O  0.30177951  0.47030749  0.00266041    -0.83500
O2223       O  0.28774214  0.46785171  0.93534573    -0.78400
O2224       O  0.30460384  0.40980884  0.99502721    -0.80200
O2225       O  0.36849086  0.48692717  0.92748383    -0.82900
C2226       C  0.27527492  0.44946321  0.91754250     0.97900
C2227       C  0.28188872  0.45066431  0.00707737     1.05300
O2228       O  0.32242717  0.45300338  0.95760887    -1.11900
O2229       O  0.36758820  0.47885795  0.50004257    -0.74300
O2230       O  0.35260946  0.50143266  0.98619761    -0.77800
O2231       O  0.27879541  0.43128957  0.91738463    -0.78500
C2232       C  0.36972118  0.49988899  0.50106820     0.96800
O2233       O  0.33885680  0.49531206  0.91838317    -0.76500
O2234       O  0.34345551  0.42408704  0.98204604    -0.81600
C2235       C  0.32902559  0.41351604  0.91387369     0.99400
C2236       C  0.32425686  0.40912411  0.99686595     1.05300
O2237       O  0.30810400  0.40499843  0.92675335    -0.77300
C2238       C  0.35966969  0.49811989  0.91214899     1.03600
Fe2239     Fe  0.49729594  0.66189484  0.70878581     1.65800
Fe2240     Fe  0.53014651  0.64132843  0.74672780     1.73200
Fe2241     Fe  0.54562681  0.66451718  0.67181182     1.54400
O2242       O  0.51431995  0.64669614  0.64168180    -0.81000
O2243       O  0.56585509  0.66638154  0.74871895    -0.79300
O2244       O  0.48187991  0.63660410  0.67301252    -0.83500
O2245       O  0.51120623  0.68947483  0.67500162    -0.78400
O2246       O  0.54579458  0.63249938  0.67123242    -0.80200
O2247       O  0.52435893  0.66544296  0.77675297    -0.82900
C2248       C  0.53206931  0.70294128  0.66336212     0.97900
C2249       C  0.49134094  0.63418219  0.64738226     1.05300
O2250       O  0.52469650  0.65594543  0.70905337    -1.11900
O2251       O  0.49472813  0.61406096  0.74850159    -0.74300
O2252       O  0.47665681  0.63573108  0.74278381    -0.77800
O2253       O  0.54889268  0.69808772  0.66695224    -0.78500
C2254       C  0.47675574  0.61701905  0.75306786     0.96800
O2255       O  0.51368240  0.68696776  0.74455648    -0.76500
O2256       O  0.53756715  0.61703445  0.72035482    -0.81600
C2257       C  0.58202328  0.68050295  0.72951661     0.99400
C2258       C  0.54302332  0.61636446  0.69107492     1.05300
O2259       O  0.57780817  0.68201207  0.69988593    -0.77300
C2260       C  0.52156003  0.68391067  0.77117574     1.03600
Fe2261     Fe  0.66076410  0.49724526  0.54337090     1.65800
Fe2262     Fe  0.64954321  0.53619938  0.50180407     1.73200
Fe2263     Fe  0.66955470  0.54874617  0.57918993     1.54400
O2264       O  0.64750433  0.51794212  0.60918201    -0.81000
O2265       O  0.67793966  0.57092400  0.50216044    -0.79300
O2266       O  0.63498135  0.48480474  0.57834660    -0.83500
O2267       O  0.68790585  0.50856960  0.57738234    -0.78400
O2268       O  0.64035345  0.55371823  0.57622681    -0.80200
O2269       O  0.67378303  0.52897926  0.96928840    -0.82900
C2270       C  0.70347609  0.52891302  0.58888059     0.97900
C2271       C  0.63353194  0.49496689  0.60388470     1.05300
O2272       O  0.65987255  0.52762397  0.54145909    -1.11900
O2273       O  0.62104064  0.50642676  0.98953105    -0.74300
O2274       O  0.63434816  0.47877675  0.50893153    -0.77800
O2275       O  0.70073849  0.54723316  0.58687540    -0.78500
C2276       C  0.61980161  0.48599281  0.98718157     0.96800
O2277       O  0.68656214  0.50981363  0.50873298    -0.76500
O2278       O  0.62654883  0.54648378  0.52595372    -0.81600
C2279       C  0.69226715  0.58595457  0.52254152     0.99400
C2280       C  0.62565865  0.55252755  0.55494763     1.05300
O2281       O  0.69138684  0.58088137  0.55232082    -0.77300
C2282       C  0.68848374  0.52134524  0.97661910     1.03600
Fe2283     Fe  0.82808731  0.82422237  0.86933548     1.65800
Fe2284     Fe  0.77821393  0.78325413  0.90744551     1.73200
Fe2285     Fe  0.78850678  0.77378389  0.83118089     1.54400
O2286       O  0.79790364  0.80545595  0.80284802    -0.81000
O2287       O  0.77586767  0.75045865  0.90832803    -0.79300
O2288       O  0.81298262  0.83693479  0.83703991    -0.83500
O2289       O  0.84444052  0.81562857  0.83253731    -0.78400
O2290       O  0.75522999  0.76984914  0.83164091    -0.80200
O2291       O  0.81036974  0.79551074  0.93588238    -0.82900
C2292       C  0.84124467  0.79559979  0.82161734     0.97900
C2293       C  0.80276816  0.82714125  0.81065449     1.05300
O2294       O  0.79800082  0.79324597  0.86935997    -1.11900
O2295       O  0.77869819  0.81562585  0.90974206    -0.74300
O2296       O  0.81826922  0.83948340  0.90616857    -0.77800
O2297       O  0.82166186  0.77605753  0.82644984    -0.78500
C2298       C  0.79769962  0.83555484  0.91558992     0.96800
O2299       O  0.84177773  0.81025057  0.90176457    -0.76500
O2300       O  0.74430318  0.76819340  0.88235101    -0.81600
C2301       C  0.77365441  0.73535086  0.88715165     0.99400
C2302       C  0.73917552  0.76453432  0.85247794     1.05300
O2303       O  0.77658992  0.74054910  0.85717872    -0.77300
C2304       C  0.83227247  0.80107776  0.92857337     1.03600
C2305       C  0.74497996  0.63502387  0.96927823    -0.13700
C2306       C  0.73943208  0.65377374  0.97135017     0.16700
C2307       C  0.72250571  0.65209060  0.99451354     0.03000
C2308       C  0.70263512  0.62789598  0.50781406    -0.12200
C2309       C  0.70977893  0.61023377  0.50936751    -0.03300
C2310       C  0.73256063  0.61396212  0.98794170     0.02200
C2311       C  0.74933246  0.67336505  0.94674166     0.09000
N2312       N  0.71648334  0.67090208  0.99768079     0.65400
H2313       H  0.68743582  0.62568399  0.52203137     0.18300
N2314       N  0.73675323  0.59414940  0.98220165     0.75900
H2315       H  0.75781473  0.63599636  0.95154243     0.09800
C2316       C  0.77404196  0.69133607  0.94604551     0.03500
C2317       C  0.78250245  0.70983266  0.92290451    -0.05200
C2318       C  0.76663111  0.71098324  0.90021687    -0.23600
C2319       C  0.74206350  0.69226146  0.90010805     0.12800
C2320       C  0.73375449  0.67350640  0.92292510    -0.12700
N2321       N  0.79037570  0.69237635  0.97040406     0.64400
H2322       H  0.80082501  0.72445247  0.92457159     0.12300
N2323       N  0.72470065  0.69316660  0.87915632     0.61100
H2324       H  0.71483526  0.65964856  0.92298852     0.08500
O2325       O  0.75355258  0.59319534  0.99713876    -0.40400
O2326       O  0.72793567  0.57910637  0.46635778    -0.39600
O2327       O  0.68454999  0.65772075  0.46996335    -0.39600
O2328       O  0.72783234  0.68777622  0.01770455    -0.37300
O2329       O  0.71212557  0.67536716  0.86087881    -0.38200
O2330       O  0.71808686  0.70863717  0.88415915    -0.34300
O2331       O  0.80671716  0.68732513  0.96363811    -0.35700
O2332       O  0.78568293  0.69819194  0.48589369    -0.40000
C2333       C  0.63501211  0.69496437  0.78291420    -0.13700
C2334       C  0.64562662  0.72016441  0.78759090     0.16700
C2335       C  0.63627776  0.73284401  0.77019189     0.03000
C2336       C  0.61659167  0.72009150  0.74887401    -0.12200
C2337       C  0.60639321  0.69493441  0.74409168    -0.03300
C2338       C  0.61605034  0.68252007  0.76116348     0.02200
C2339       C  0.66888814  0.73249626  0.80607931     0.09000
N2340       N  0.64676731  0.75857871  0.77336056     0.65400
H2341       H  0.60896682  0.72974950  0.73651672     0.18300
N2342       N  0.60684351  0.65708823  0.75625879     0.75900
H2343       H  0.64214952  0.68492455  0.79552631     0.09800
C2344       C  0.67317668  0.74706432  0.83376528     0.03500
C2345       C  0.69587170  0.75711231  0.84988291    -0.05200
C2346       C  0.71400228  0.75222478  0.83918518    -0.23600
C2347       C  0.70891011  0.73680310  0.81216827     0.12800
C2348       C  0.68705888  0.72781183  0.79583441    -0.12700
N2349       N  0.65457230  0.75106882  0.84645909     0.64400
H2350       H  0.69932927  0.76873278  0.87047404     0.12300
N2351       N  0.72579703  0.72978068  0.80080649     0.61100
H2352       H  0.68412828  0.71658690  0.77490550     0.08500
O2353       O  0.59428698  0.64213393  0.77769842    -0.40400
O2354       O  0.61510666  0.65021874  0.73362243    -0.39600
O2355       O  0.66628759  0.77251501  0.75899394    -0.39600
O2356       O  0.63431258  0.76718798  0.78502022    -0.37300
O2357       O  0.72342445  0.70966526  0.80942978    -0.38200
O2358       O  0.73865510  0.74031501  0.77669844    -0.34300
O2359       O  0.63585963  0.73352386  0.85855523    -0.35700
O2360       O  0.65879889  0.77251085  0.85102636    -0.40000
C2361       C  0.60122566  0.58827238  0.59647296    -0.13700
C2362       C  0.58063042  0.56966991  0.61167855     0.16700
C2363       C  0.57236553  0.54536211  0.60232081     0.03000
C2364       C  0.58570702  0.54002782  0.58002754    -0.12200
C2365       C  0.60718716  0.55859803  0.56637893    -0.03300
C2366       C  0.61445247  0.58295700  0.57415557     0.02200
C2367       C  0.56823301  0.57631568  0.63698237     0.09000
N2368       N  0.55167800  0.52577160  0.61725235     0.65400
H2369       H  0.58033777  0.52119579  0.57537172     0.18300
N2370       N  0.63629783  0.60246717  0.56121886     0.75900
H2371       H  0.60751212  0.60707766  0.60267428     0.09800
C2372       C  0.58066259  0.58894684  0.66500529     0.03500
C2373       C  0.57046246  0.59918052  0.68535343    -0.05200
C2374       C  0.54799359  0.59736188  0.67823410    -0.23600
C2375       C  0.53480607  0.58321016  0.65146378     0.12800
C2376       C  0.54486184  0.57272527  0.63131979    -0.12700
N2377       N  0.60428507  0.59262961  0.67221502     0.64400
H2378       H  0.58105686  0.61026591  0.70532369     0.12300
N2379       N  0.51196261  0.58098930  0.64296914     0.61100
H2380       H  0.53503496  0.56313831  0.60999242     0.08500
O2381       O  0.65538700  0.61241662  0.57802116    -0.40400
O2382       O  0.63544670  0.61232213  0.53543953    -0.39600
O2383       O  0.53185012  0.51469250  0.60210835    -0.39600
O2384       O  0.55440372  0.51675225  0.64272543    -0.37300
O2385       O  0.51080291  0.59316743  0.61990233    -0.38200
O2386       O  0.49263398  0.56370577  0.65420882    -0.34300
O2387       O  0.62274240  0.61336661  0.66846214    -0.35700
O2388       O  0.60632138  0.57639866  0.68698542    -0.40000
C2389       C  0.42370581  0.58728760  0.81098984    -0.13700
C2390       C  0.42151962  0.56432733  0.81455438     0.16700
C2391       C  0.43584907  0.55799631  0.79560744     0.03000
C2392       C  0.45309888  0.57515893  0.77489259    -0.12200
C2393       C  0.45613836  0.59860648  0.77216139    -0.03300
C2394       C  0.44079808  0.60442687  0.78999454     0.02200
C2395       C  0.40565566  0.54794223  0.83991847     0.09000
N2396       N  0.43291835  0.53413748  0.79697802     0.65400
H2397       H  0.46430851  0.57012330  0.76100723     0.18300
N2398       N  0.44341853  0.62813078  0.78880739     0.75900
H2399       H  0.41278064  0.59228380  0.82557277     0.09800
C2400       C  0.41561259  0.54209187  0.86629358     0.03500
C2401       C  0.40019089  0.52553774  0.88904125    -0.05200
C2402       C  0.37486248  0.51542137  0.88699856    -0.23600
C2403       C  0.36499569  0.52223981  0.86132466     0.12800
C2404       C  0.38043017  0.53818244  0.83785597    -0.12700
N2405       N  0.44135012  0.55389774  0.87129680     0.64400
H2406       H  0.40821240  0.52128701  0.90913465     0.12300
N2407       N  0.33941810  0.51290807  0.85839952     0.61100
H2408       H  0.37270654  0.54290192  0.81787417     0.08500
O2409       O  0.45671423  0.64397610  0.80911245    -0.40400
O2410       O  0.42927516  0.63178806  0.77143873    -0.39600
O2411       O  0.41417904  0.51644656  0.78492987    -0.39600
O2412       O  0.45069880  0.53148905  0.80469031    -0.37300
O2413       O  0.32684473  0.49465860  0.84080782    -0.38200
O2414       O  0.33027180  0.52524802  0.86880867    -0.34300
O2415       O  0.45313338  0.57656985  0.87609096    -0.35700
O2416       O  0.45135393  0.54137451  0.87700784    -0.40000
C2417       C  0.42021214  0.53425149  0.56343363    -0.13700
C2418       C  0.42250554  0.55743940  0.56272459     0.16700
C2419       C  0.40732831  0.56146248  0.54205718     0.03000
C2420       C  0.39012353  0.54245816  0.52287243    -0.12200
C2421       C  0.38773225  0.51911019  0.52324935    -0.03300
C2422       C  0.40330346  0.51526801  0.54380276     0.02200
C2423       C  0.44049283  0.57710052  0.58406862     0.09000
N2424       N  0.40891386  0.58472059  0.54064042     0.65400
H2425       H  0.37869140  0.54620617  0.50736988     0.18300
N2426       N  0.40137432  0.48886969  0.04161464     0.75900
H2427       H  0.43195659  0.53097243  0.57898475     0.09800
C2428       C  0.43770904  0.57530790  0.61747599     0.03500
C2429       C  0.45441348  0.59413704  0.63718554    -0.05200
C2430       C  0.47448678  0.61502652  0.62448849    -0.23600
C2431       C  0.47772047  0.61653467  0.59099207     0.12800
C2432       C  0.46065832  0.59774002  0.57112475    -0.12700
N2433       N  0.41770357  0.55457337  0.63177676     0.64400
H2434       H  0.45170770  0.59222961  0.66281702     0.12300
N2435       N  0.49782518  0.63717117  0.57672177     0.61100
H2436       H  0.46318437  0.59923828  0.54546170     0.08500
O2437       O  0.41456710  0.48418720  0.02385126    -0.40400
O2438       O  0.39018708  0.47488577  0.06457207    -0.39600
O2439       O  0.42049205  0.59909966  0.51819174    -0.39600
O2440       O  0.39534898  0.58904011  0.55815758    -0.37300
O2441       O  0.51538072  0.63532602  0.56592373    -0.38200
O2442       O  0.49608863  0.65562192  0.56988793    -0.34300
O2443       O  0.42096944  0.53830347  0.64421834    -0.35700
O2444       O  0.39817224  0.55465507  0.63696002    -0.40000
C2445       C  0.29396046  0.35220864  0.54572724    -0.13700
C2446       C  0.30026619  0.33782107  0.52696887     0.16700
C2447       C  0.31744382  0.34888458  0.50243442     0.03000
C2448       C  0.32721903  0.37383675  0.49625328    -0.12200
C2449       C  0.31952212  0.38786396  0.51354923    -0.03300
C2450       C  0.30317750  0.37690087  0.53902661     0.02200
C2451       C  0.28625847  0.31107078  0.53170711     0.09000
N2452       N  0.32313551  0.33470323  0.48129917     0.65400
H2453       H  0.33864249  0.38142795  0.47586340     0.18300
N2454       N  0.29460094  0.39020476  0.55714705     0.75900
H2455       H  0.28081683  0.34390669  0.56464233     0.09800
C2456       C  0.29620823  0.29816046  0.54689974     0.03500
C2457       C  0.28069098  0.27465309  0.55881170    -0.05200
C2458       C  0.25528664  0.26387493  0.55588840    -0.23600
C2459       C  0.24576564  0.27583738  0.53719689     0.12800
C2460       C  0.26125230  0.29918766  0.52548571    -0.12700
N2461       N  0.32430708  0.30558468  0.05232916     0.64400
H2462       H  0.28843841  0.26583937  0.57285871     0.12300
N2463       N  0.22020519  0.26529543  0.53177218     0.61100
H2464       H  0.25347603  0.30877347  0.51322549     0.08500
O2465       O  0.30694675  0.40296984  0.58057347    -0.40400
O2466       O  0.27293242  0.38552294  0.55371428    -0.39600
O2467       O  0.30818921  0.32223778  0.45962477    -0.39600
O2468       O  0.34469997  0.33878980  0.47974697    -0.37300
O2469       O  0.20835396  0.27286076  0.54754607    -0.38200
O2470       O  0.21078666  0.25255562  0.50706552    -0.34300
O2471       O  0.33445153  0.31622762  0.07807539    -0.35700
O2472       O  0.33466684  0.29740345  0.03462332    -0.40000
C2473       C  0.53503708  0.38895716  0.91126373    -0.13700
C2474       C  0.54630440  0.41398344  0.90525724     0.16700
C2475       C  0.54197179  0.42233422  0.87623150     0.03000
C2476       C  0.52627953  0.40561371  0.85374281    -0.12200
C2477       C  0.51511395  0.38049874  0.85939038    -0.03300
C2478       C  0.51943170  0.37213835  0.88856913     0.02200
C2479       C  0.56401939  0.43119636  0.92834370     0.09000
N2480       N  0.55444654  0.44765305  0.86850186     0.65400
H2481       H  0.52347169  0.41233206  0.83128397     0.18300
N2482       N  0.50749271  0.34678752  0.89595589     0.75900
H2483       H  0.53843597  0.38252187  0.93356633     0.09800
C2484       C  0.55913718  0.44685114  0.94674423     0.03500
C2485       C  0.57753166  0.46475944  0.96581184    -0.05200
C2486       C  0.60053423  0.46670423  0.96749749    -0.23600
C2487       C  0.60501339  0.45038371  0.94967552     0.12800
C2488       C  0.58681695  0.43296531  0.93013334    -0.12700
N2489       N  0.53541440  0.44419503  0.94704938     0.64400
H2490       H  0.57568901  0.47668962  0.47593045     0.12300
N2491       N  0.62829267  0.45198841  0.94988947     0.61100
H2492       H  0.59064739  0.42105844  0.91575871     0.08500
O2493       O  0.48706333  0.33692308  0.90953569    -0.40400
O2494       O  0.51885964  0.33525897  0.89343204    -0.39600
O2495       O  0.57614189  0.45761017  0.85892701    -0.39600
O2496       O  0.54253476  0.45855195  0.86492805    -0.37300
O2497       O  0.63234978  0.43916690  0.96923958    -0.38200
O2498       O  0.64256998  0.46195582  0.92678747    -0.34300
O2499       O  0.52087118  0.42992424  0.44767923    -0.35700
O2500       O  0.53205658  0.46054909  0.93510740    -0.40000
C2501       C  0.59548381  0.46677457  0.68035768    -0.13700
C2502       C  0.57695513  0.44421938  0.66853750     0.16700
C2503       C  0.57728690  0.43900036  0.63590474     0.03000
C2504       C  0.59541293  0.45599829  0.61581373    -0.12200
C2505       C  0.61422968  0.47855203  0.62726909    -0.03300
C2506       C  0.61404147  0.48383133  0.66014624     0.02200
C2507       C  0.55710656  0.42612447  0.68980353     0.09000
N2508       N  0.55989029  0.41586506  0.62299258     0.65400
H2509       H  0.59483272  0.45112777  0.59089300     0.18300
N2510       N  0.63290053  0.50592870  0.67368093     0.75900
H2511       H  0.59559512  0.47114787  0.70538136     0.09800
C2512       C  0.56205539  0.41500362  0.71564432     0.03500
C2513       C  0.54288205  0.39633885  0.73299652    -0.05200
C2514       C  0.51829431  0.38845963  0.72580137    -0.23600
C2515       C  0.51339967  0.40042454  0.70077146     0.12800
C2516       C  0.53264483  0.41873264  0.68289054    -0.12700
N2517       N  0.58650036  0.42198397  0.72411943     0.64400
H2518       H  0.54740754  0.38806127  0.75244368     0.12300
N2519       N  0.48904770  0.39412903  0.69285869     0.61100
H2520       H  0.52844562  0.42722564  0.66338564     0.08500
O2521       O  0.65167736  0.50657708  0.68495966    -0.40400
O2522       O  0.62900719  0.52323726  0.67934032    -0.39600
O2523       O  0.54410801  0.41440393  0.60332172    -0.39600
O2524       O  0.56274638  0.39774417  0.62722320    -0.37300
O2525       O  0.47992035  0.40587631  0.70529835    -0.38200
O2526       O  0.47857738  0.38034429  0.66930920    -0.34300
O2527       O  0.59627464  0.43563803  0.74800580    -0.35700
O2528       O  0.59642013  0.41093312  0.71185428    -0.40000
C2529       C  0.29705450  0.26228149  0.72344275    -0.13700
C2530       C  0.31084256  0.28642861  0.71314477     0.16700
C2531       C  0.30002195  0.29611875  0.69293503     0.03000
C2532       C  0.27640006  0.28094530  0.68109534    -0.12200
C2533       C  0.26360174  0.25602558  0.68863058    -0.03300
C2534       C  0.27361379  0.24706810  0.71143822     0.02200
C2535       C  0.33738214  0.29933914  0.71926194     0.09000
N2536       N  0.31365245  0.32056345  0.68167645     0.65400
H2537       H  0.26912880  0.28812207  0.66343126     0.18300
N2538       N  0.26074280  0.22216991  0.72117413     0.75900
H2539       H  0.30515030  0.25476412  0.73931320     0.09800
C2540       C  0.34818850  0.31573813  0.74485570     0.03500
C2541       C  0.37268054  0.32424288  0.75262831    -0.05200
C2542       C  0.38643212  0.31602950  0.73584390    -0.23600
C2543       C  0.37576712  0.30035990  0.70948951     0.12800
C2544       C  0.35153548  0.29238080  0.70123383    -0.12700
N2545       N  0.33404359  0.32208376  0.76500555     0.64400
H2546       H  0.38029768  0.33569180  0.77331290     0.12300
N2547       N  0.38902466  0.29162774  0.69162736     0.61100
H2548       H  0.34333438  0.27968204  0.68163072     0.08500
O2549       O  0.24552961  0.21579705  0.74357956    -0.40400
O2550       O  0.26745505  0.20763585  0.71131431    -0.39600
O2551       O  0.32754634  0.32532415  0.65798559    -0.39600
O2552       O  0.30878414  0.33639366  0.69180710    -0.37300
O2553       O  0.40091529  0.30326649  0.66742032    -0.38200
O2554       O  0.38519918  0.27035120  0.69632694    -0.34300
O2555       O  0.32901254  0.31365346  0.79298793    -0.35700
O2556       O  0.33072540  0.33943414  0.75726247    -0.40000
C2557       C  0.37117898  0.38824924  0.89766003    -0.13700
C2558       C  0.35604542  0.36637556  0.88180641     0.16700
C2559       C  0.33133617  0.35927506  0.87730911     0.03000
C2560       C  0.32243216  0.37457555  0.88775115    -0.12200
C2561       C  0.33802382  0.39715929  0.90226289    -0.03300
C2562       C  0.36260914  0.40358525  0.90774148     0.02200
C2563       C  0.36778801  0.35345297  0.86703044     0.09000
N2564       N  0.31530281  0.33699967  0.86138228     0.65400
H2565       H  0.30348154  0.36900191  0.88401189     0.18300
N2566       N  0.37917044  0.42538541  0.92442090     0.75900
H2567       H  0.39013939  0.39382475  0.90151734     0.09800
C2568       C  0.38466083  0.36499932  0.84231134     0.03500
C2569       C  0.39975724  0.35610886  0.83268897    -0.05200
C2570       C  0.39838502  0.33533192  0.84659742    -0.23600
C2571       C  0.38089202  0.32300044  0.87055217     0.12800
C2572       C  0.36578898  0.33223754  0.88077033    -0.12700
N2573       N  0.38721768  0.38640449  0.82734795     0.64400
H2574       H  0.41277009  0.36564837  0.81385039     0.12300
N2575       N  0.37972718  0.30257309  0.88654783     0.61100
H2576       H  0.35340833  0.32359236  0.90047194     0.08500
O2577       O  0.38431630  0.42408763  0.95323990    -0.40400
O2578       O  0.39274250  0.44433101  0.90868723    -0.39600
O2579       O  0.30512501  0.31744587  0.87706934    -0.39600
O2580       O  0.30812789  0.33745898  0.83337848    -0.37300
O2581       O  0.39427106  0.30600104  0.90920851    -0.38200
O2582       O  0.36176502  0.28161677  0.88190858    -0.34300
O2583       O  0.40575896  0.40675278  0.83314699    -0.35700
O2584       O  0.37358834  0.38434667  0.80412638    -0.40000
C2585       C  0.59435512  0.96451057  0.85600547    -0.13700
C2586       C  0.61951853  0.97530355  0.86041155     0.16700
C2587       C  0.62895781  0.96130618  0.87377493     0.03000
C2588       C  0.61300974  0.93785676  0.88565419    -0.12200
C2589       C  0.58762152  0.92807149  0.88442293    -0.03300
C2590       C  0.57844579  0.94111785  0.86744639     0.02200
C2591       C  0.63457496  0.00209115  0.85582132     0.09000
N2592       N  0.65454217  0.97143474  0.87803937     0.65400
H2593       H  0.62058127  0.92828943  0.89841943     0.18300
N2594       N  0.55289221  0.93149721  0.86330278     0.75900
H2595       H  0.58689496  0.97490054  0.84512851     0.09800
C2596       C  0.65049257  0.01266989  0.82977915     0.03500
C2597       C  0.66161948  0.03792911  0.82462995    -0.05200
C2598       C  0.65613235  0.05269338  0.84406160    -0.23600
C2599       C  0.64097797  0.04216137  0.87075061     0.12800
C2600       C  0.63074981  0.01721486  0.87669817    -0.12700
N2601       N  0.65331600  0.99782796  0.80635520     0.64400
H2602       H  0.67241869  0.04551300  0.80332247     0.12300
N2603       N  0.63467021  0.05631470  0.89099728     0.61100
H2604       H  0.61857799  0.00932042  0.89677338     0.08500
O2605       O  0.54225810  0.94059864  0.87868813    -0.40400
O2606       O  0.54202647  0.91714713  0.84038350    -0.39600
O2607       O  0.66417329  0.98061718  0.90464695    -0.39600
O2608       O  0.66649314  0.96709451  0.85762826    -0.37300
O2609       O  0.61439787  0.05522317  0.88742364    -0.38200
O2610       O  0.64701205  0.06593722  0.91593030    -0.34300
O2611       O  0.63604686  0.98529901  0.78730576    -0.35700
O2612       O  0.67422746  0.00115562  0.80034963    -0.40000
C2613       C  0.52627860  0.75349670  0.62291455    -0.13700
C2614       C  0.54086427  0.75762249  0.59586448     0.16700
C2615       C  0.55466514  0.74589533  0.59339550     0.03000
C2616       C  0.55257907  0.72927333  0.61682389    -0.12200
C2617       C  0.53651557  0.72364616  0.64263879    -0.03300
C2618       C  0.52378156  0.73648753  0.64608159     0.02200
C2619       C  0.54057479  0.77334736  0.56989145     0.09000
N2620       N  0.56953482  0.74934365  0.56611781     0.65400
H2621       H  0.56251478  0.71962397  0.61367228     0.18300
N2622       N  0.50842341  0.73268099  0.67293403     0.75900
H2623       H  0.51621969  0.76305724  0.62559680     0.09800
C2624       C  0.51849755  0.76834264  0.55540092     0.03500
C2625       C  0.51834840  0.78378684  0.53184280    -0.05200
C2626       C  0.53996819  0.80420183  0.52169578    -0.23600
C2627       C  0.56219443  0.80902624  0.53577300     0.12800
C2628       C  0.56229731  0.79370235  0.55987419    -0.12700
N2629       N  0.49609758  0.74717913  0.56368295     0.64400
H2630       H  0.56431487  0.80562535  0.00755207     0.12300
N2631       N  0.58460663  0.82994016  0.52702657     0.61100
H2632       H  0.57933289  0.79794054  0.57116517     0.08500
O2633       O  0.48629861  0.71649483  0.67143221    -0.40400
O2634       O  0.51526173  0.74896431  0.69415928    -0.39600
O2635       O  0.59237182  0.76100530  0.56895017    -0.39600
O2636       O  0.56000994  0.73747381  0.54083231    -0.37300
O2637       O  0.59238284  0.84931065  0.54300163    -0.38200
O2638       O  0.59861845  0.82770411  0.50773961    -0.34300
O2639       O  0.47977112  0.74947368  0.57769750    -0.35700
O2640       O  0.49109792  0.72677236  0.55225765    -0.40000
C2641       C  0.54436913  0.74561433  0.81086938    -0.13700
C2642       C  0.53197108  0.73938861  0.84016528     0.16700
C2643       C  0.51769854  0.71436297  0.84780309     0.03000
C2644       C  0.51553311  0.69638041  0.82597572    -0.12200
C2645       C  0.52720205  0.70277267  0.79622540    -0.03300
C2646       C  0.54214652  0.72771062  0.78913655     0.02200
C2647       C  0.53262544  0.75919531  0.86080185     0.09000
N2648       N  0.50517963  0.70687425  0.87758145     0.65400
H2649       H  0.50401442  0.67736762  0.83186864     0.18300
N2650       N  0.55535525  0.73518507  0.75984055     0.75900
H2651       H  0.55519211  0.76454706  0.80418040     0.09800
C2652       C  0.55470814  0.78023415  0.86931932     0.03500
C2653       C  0.55453743  0.79952969  0.88583733    -0.05200
C2654       C  0.53265807  0.79839911  0.89490684    -0.23600
C2655       C  0.51055473  0.77730517  0.88636771     0.12800
C2656       C  0.51075330  0.75819283  0.86944660    -0.12700
N2657       N  0.57755258  0.78194052  0.86241131     0.64400
H2658       H  0.57173422  0.81516287  0.89255457     0.12300
N2659       N  0.48763035  0.77529258  0.89360206     0.61100
H2660       H  0.49360199  0.74274769  0.86220470     0.08500
O2661       O  0.57767569  0.74180458  0.75980812    -0.40400
O2662       O  0.54618108  0.73978883  0.73594948    -0.39600
O2663       O  0.48226688  0.69624242  0.87798389    -0.39600
O2664       O  0.51652949  0.70667923  0.90228140    -0.37300
O2665       O  0.47874119  0.78443709  0.87488604    -0.38200
O2666       O  0.47455777  0.76101772  0.91532998    -0.34300
O2667       O  0.59224361  0.79823697  0.84375738    -0.35700
O2668       O  0.58463330  0.76997951  0.87889753    -0.40000
C2669       C  0.79530201  0.92196016  0.49417752    -0.13700
C2670       C  0.79202706  0.89926095  0.50313341     0.16700
C2671       C  0.78782521  0.89211707  0.53545282     0.03000
C2672       C  0.78689638  0.90776304  0.55830861    -0.12200
C2673       C  0.79077912  0.93071740  0.54944061    -0.03300
C2674       C  0.79472081  0.93772087  0.51709570     0.02200
C2675       C  0.78979272  0.88646370  0.97464992     0.09000
N2676       N  0.78588970  0.86970031  0.54560900     0.65400
H2677       H  0.78425634  0.90245170  0.58322024     0.18300
N2678       N  0.79732623  0.96043707  0.50711715     0.75900
H2679       H  0.81007618  0.93464991  0.96925617     0.09800
C2680       C  0.76968127  0.86807106  0.95807719     0.03500
C2681       C  0.77276952  0.85192185  0.93859198    -0.05200
C2682       C  0.79574571  0.85401837  0.93486921    -0.23600
C2683       C  0.81599594  0.87300524  0.95086504     0.12800
C2684       C  0.81280273  0.88895322  0.97055807    -0.12700
N2685       N  0.74623046  0.86600965  0.96002683     0.64400
H2686       H  0.75710606  0.83781227  0.92608363     0.12300
N2687       N  0.83972419  0.87580634  0.94857744     0.61100
H2688       H  0.83159460  0.90450679  0.47288491     0.08500
O2689       O  0.83582170  0.98039664  0.00106395    -0.40400
O2690       O  0.77865732  0.96182300  0.50041275    -0.39600
O2691       O  0.80490198  0.86820674  0.54848381    -0.39600
O2692       O  0.76628136  0.85339016  0.55759026    -0.37300
O2693       O  0.84651065  0.86572966  0.96892987    -0.38200
O2694       O  0.85519936  0.89177500  0.93026714    -0.34300
O2695       O  0.74276128  0.88199021  0.94707044    -0.35700
O2696       O  0.72817509  0.84620172  0.96874426    -0.40000
C2697       C  0.78630562  0.87400814  0.78013977    -0.13700
C2698       C  0.79041239  0.87412507  0.74724469     0.16700
C2699       C  0.79702102  0.85748827  0.73491498     0.03000
C2700       C  0.79978007  0.84140590  0.75545150    -0.12200
C2701       C  0.79686625  0.84209892  0.78863474    -0.03300
C2702       C  0.78968026  0.85847953  0.80082854     0.02200
C2703       C  0.79021051  0.89334780  0.72676448     0.09000
N2704       N  0.80164332  0.85721260  0.70159335     0.65400
H2705       H  0.80532578  0.82913820  0.74554857     0.18300
N2706       N  0.78599892  0.85982285  0.83432003     0.75900
H2707       H  0.78136341  0.88674668  0.79002857     0.09800
C2708       C  0.76869093  0.89383301  0.71969947     0.03500
C2709       C  0.76959801  0.91265531  0.70077573    -0.05200
C2710       C  0.79176779  0.93138124  0.68863504    -0.23600
C2711       C  0.81338723  0.93134091  0.69715169     0.12800
C2712       C  0.81236702  0.91240532  0.71569193    -0.12700
N2713       N  0.74567705  0.87484516  0.73054613     0.64400
H2714       H  0.75272199  0.91208735  0.69465940     0.12300
N2715       N  0.83669360  0.95077904  0.68798746     0.61100
H2716       H  0.82914615  0.91280421  0.72196220     0.08500
O2717       O  0.80271709  0.87624874  0.85104983    -0.40400
O2718       O  0.76489685  0.84772689  0.84576079    -0.39600
O2719       O  0.82307462  0.86948639  0.69126273    -0.39600
O2720       O  0.78507415  0.84210275  0.68342088    -0.37300
O2721       O  0.84637477  0.97035049  0.70382549    -0.38200
O2722       O  0.84918960  0.94697731  0.66783799    -0.34300
O2723       O  0.73436249  0.87927898  0.75182807    -0.35700
O2724       O  0.73491862  0.85507995  0.71519548    -0.40000
C2725       C  0.69987171  0.00110788  0.69656165    -0.13700
C2726       C  0.70472614  0.02443438  0.68712861     0.16700
C2727       C  0.72407529  0.03792310  0.66597419     0.03000
C2728       C  0.73924270  0.02905158  0.65673546    -0.12200
C2729       C  0.73527038  0.00629830  0.66699687    -0.03300
C2730       C  0.71491375  0.99184966  0.68632412     0.02200
C2731       C  0.69434921  0.03748658  0.70479028     0.09000
N2732       N  0.72924208  0.06137827  0.65488194     0.65400
H2733       H  0.75421025  0.04009237  0.64086281     0.18300
N2734       N  0.71051054  0.96879514  0.69776308     0.75900
H2735       H  0.68544851  0.99080560  0.71345471     0.09800
C2736       C  0.66984137  0.03166577  0.70289001     0.03500
C2737       C  0.66250112  0.04707072  0.71740955    -0.05200
C2738       C  0.67944747  0.06844139  0.73346109    -0.23600
C2739       C  0.70381540  0.07341910  0.73632953     0.12800
C2740       C  0.71073767  0.05792989  0.72231163    -0.12700
N2741       N  0.65248057  0.01073926  0.68556401     0.64400
H2742       H  0.64369539  0.04261571  0.71549182     0.12300
N2743       N  0.72189172  0.09380879  0.75407710     0.61100
H2744       H  0.72947580  0.06217255  0.72473513     0.08500
O2745       O  0.69281591  0.94945899  0.68697758    -0.40400
O2746       O  0.72477782  0.96769477  0.71789227    -0.39600
O2747       O  0.74943821  0.07994044  0.66127047    -0.39600
O2748       O  0.71460690  0.06320882  0.63617752    -0.37300
O2749       O  0.72052840  0.09393106  0.78414189    -0.38200
O2750       O  0.74162621  0.10857082  0.74074435    -0.34300
O2751       O  0.63837497  0.99155078  0.70049518    -0.35700
O2752       O  0.64830710  0.01277079  0.65656352    -0.40000
C2753       C  0.68959234  0.98357471  0.54813456    -0.13700
C2754       C  0.67725245  0.96033443  0.53442094     0.16700
C2755       C  0.69035831  0.94859311  0.52611046     0.03000
C2756       C  0.71470432  0.95887941  0.53531553    -0.12200
C2757       C  0.72661672  0.98107564  0.55211834    -0.03300
C2758       C  0.71429944  0.99435208  0.55640337     0.02200
C2759       C  0.65065263  0.94829774  0.52936208     0.09000
N2760       N  0.67914980  0.92619292  0.50849960     0.65400
H2761       H  0.72407103  0.94885129  0.53052840     0.18300
N2762       N  0.72617480  0.01828264  0.56999034     0.75900
H2763       H  0.67979864  0.99314726  0.55309667     0.09800
C2764       C  0.63471133  0.92601845  0.54419600     0.03500
C2765       C  0.61041835  0.91293302  0.53432866    -0.05200
C2766       C  0.60141045  0.92190284  0.51040197    -0.23600
C2767       C  0.61538987  0.95213243  0.00403540     0.12800
C2768       C  0.64127827  0.95845266  0.50793354    -0.12700
N2769       N  0.64302100  0.91639876  0.56902270     0.64400
H2770       H  0.59875768  0.89507114  0.54431972     0.12300
N2771       N  0.60644194  0.96188868  0.98029813     0.61100
H2772       H  0.65090094  0.98423855  0.00490590     0.08500
O2773       O  0.71541076  0.02377922  0.59087661    -0.40400
O2774       O  0.74452334  0.03507980  0.55619454    -0.39600
O2775       O  0.67058832  0.92544914  0.48099001    -0.39600
O2776       O  0.68124076  0.90844209  0.51803832    -0.37300
O2777       O  0.61399832  0.96428035  0.95195112    -0.38200
O2778       O  0.59457787  0.97203969  0.98879037    -0.34300
O2779       O  0.64975514  0.92745493  0.59543857    -0.35700
O2780       O  0.63969563  0.89510653  0.56667099    -0.40000
C2781       C  0.57849699  0.14151876  0.70473197    -0.13700
C2782       C  0.56377806  0.12085424  0.68614549     0.16700
C2783       C  0.56878012  0.10147284  0.68645843     0.03000
C2784       C  0.58764222  0.10280831  0.70568013    -0.12200
C2785       C  0.60205858  0.12325025  0.72499621    -0.03300
C2786       C  0.59734702  0.14293398  0.72395777     0.02200
C2787       C  0.54479297  0.12084692  0.66467610     0.09000
N2788       N  0.55448900  0.07997298  0.66795411     0.65400
H2789       H  0.59065565  0.08743256  0.70585837     0.18300
N2790       N  0.61159116  0.16471951  0.74197784     0.75900
H2791       H  0.57568588  0.15700959  0.70387084     0.09800
C2792       C  0.52689901  0.12610483  0.67608752     0.03500
C2793       C  0.51079178  0.12803638  0.65462632    -0.05200
C2794       C  0.51229304  0.12513224  0.62162759    -0.23600
C2795       C  0.52975327  0.11924754  0.61033581     0.12800
C2796       C  0.54577347  0.11733030  0.63171669    -0.12700
N2797       N  0.52495662  0.12974570  0.70940327     0.64400
H2798       H  0.49762378  0.13264051  0.66371828     0.12300
N2799       N  0.53137932  0.11501971  0.57707541     0.61100
H2800       H  0.55950573  0.11367165  0.62230296     0.08500
O2801       O  0.60341448  0.16790441  0.76788455    -0.40400
O2802       O  0.62968805  0.18246578  0.72910866    -0.39600
O2803       O  0.56393982  0.07533519  0.64444379    -0.39600
O2804       O  0.53439222  0.06358463  0.67867951    -0.37300
O2805       O  0.54911141  0.13053508  0.56094921    -0.38200
O2806       O  0.51750962  0.09425688  0.56529482    -0.34300
O2807       O  0.53147303  0.15084552  0.71969447    -0.35700
O2808       O  0.51235417  0.11161980  0.72698545    -0.40000
C2809       C  0.60120436  0.12901714  0.91955087    -0.13700
C2810       C  0.57598849  0.11417558  0.91622459     0.16700
C2811       C  0.56640761  0.10016081  0.88813364     0.03000
C2812       C  0.58218336  0.10167845  0.86381369    -0.12200
C2813       C  0.60729709  0.11780315  0.86620858    -0.03300
C2814       C  0.61686949  0.13113790  0.89482629     0.02200
C2815       C  0.56009042  0.11633781  0.94017363     0.09000
N2816       N  0.54074267  0.08614054  0.88254786     0.65400
H2817       H  0.57452300  0.09145086  0.84197792     0.18300
N2818       N  0.64237379  0.14722766  0.89904977     0.75900
H2819       H  0.60870498  0.13979387  0.94104828     0.09800
C2820       C  0.54125044  0.09599916  0.95572273     0.03500
C2821       C  0.52440895  0.09887182  0.97397120    -0.05200
C2822       C  0.52641723  0.12185357  0.97787586    -0.23600
C2823       C  0.54638309  0.14239266  0.96415458     0.12800
C2824       C  0.56278705  0.13940791  0.94526980    -0.12700
N2825       N  0.53918098  0.07249946  0.95359640     0.64400
H2826       H  0.50967946  0.08300323  0.98517308     0.12300
N2827       N  0.54964228  0.16625310  0.96763436     0.61100
H2828       H  0.57725134  0.15516445  0.93349570     0.08500
O2829       O  0.65545822  0.13916876  0.91025901    -0.40400
O2830       O  0.65087818  0.16990280  0.89707083    -0.39600
O2831       O  0.52829981  0.09663863  0.88133363    -0.39600
O2832       O  0.53139923  0.06435563  0.87321431    -0.37300
O2833       O  0.56285023  0.17980001  0.99000116    -0.38200
O2834       O  0.54339242  0.17529016  0.94520513    -0.34300
O2835       O  0.55581995  0.06934618  0.96504984    -0.35700
O2836       O  0.51911156  0.05421231  0.94596396    -0.40000
C2837       C  0.43715209  0.22128078  0.88464651    -0.13700
C2838       C  0.45950975  0.22222839  0.88923326     0.16700
C2839       C  0.48045957  0.24137129  0.87529329     0.03000
C2840       C  0.47889360  0.25935995  0.85756192    -0.12200
C2841       C  0.45652638  0.25873827  0.85299126    -0.03300
C2842       C  0.43540734  0.23900504  0.86638626     0.02200
C2843       C  0.46115164  0.20438411  0.91079685     0.09000
N2844       N  0.50354975  0.24289655  0.87932219     0.65400
H2845       H  0.49540908  0.27395992  0.84737605     0.18300
N2846       N  0.41188166  0.23599432  0.86053408     0.75900
H2847       H  0.42088034  0.20654691  0.89515663     0.09800
C2848       C  0.46335128  0.20842464  0.94393909     0.03500
C2849       C  0.46609612  0.19242205  0.96420256    -0.05200
C2850       C  0.46659717  0.17184027  0.95235347    -0.23600
C2851       C  0.46389959  0.16747944  0.91898212     0.12800
C2852       C  0.46136658  0.18381728  0.89852780    -0.12700
N2853       N  0.46316066  0.22904933  0.95738106     0.64400
H2854       H  0.46773446  0.19621613  0.98962071     0.12300
N2855       N  0.46444322  0.14709390  0.90536462     0.61100
H2856       H  0.45978990  0.18056900  0.87298301     0.08500
O2857       O  0.40047960  0.23911398  0.88298570    -0.40400
O2858       O  0.40093374  0.22625155  0.83476952    -0.39600
O2859       O  0.51064004  0.23294779  0.85921976    -0.39600
O2860       O  0.51596653  0.25245626  0.90422763    -0.37300
O2861       O  0.44481242  0.12838514  0.89747712    -0.38200
O2862       O  0.48442350  0.14923857  0.89659586    -0.34300
O2863       O  0.44327717  0.22738718  0.96558806    -0.35700
O2864       O  0.48292032  0.24763464  0.96518261    -0.40000
C2865       C  0.46414376  0.23387947  0.70346010    -0.13700
C2866       C  0.45845306  0.23609367  0.67166582     0.16700
C2867       C  0.45149554  0.25340874  0.66385289     0.03000
C2868       C  0.45102165  0.26866367  0.68780712    -0.12200
C2869       C  0.45665592  0.26626405  0.71951135    -0.03300
C2870       C  0.46313028  0.24870619  0.72737687     0.02200
C2871       C  0.45908425  0.21935809  0.64759268     0.09000
N2872       N  0.44366888  0.25478322  0.63223374     0.65400
H2873       H  0.44575237  0.28203255  0.68182412     0.18300
N2874       N  0.46882770  0.24589596  0.75960828     0.75900
H2875       H  0.46931228  0.22047730  0.70970690     0.09800
C2876       C  0.47684833  0.22743009  0.62341853     0.03500
C2877       C  0.47809482  0.21040031  0.60320590    -0.05200
C2878       C  0.46203301  0.18534347  0.60700593    -0.23600
C2879       C  0.44405222  0.17748861  0.63101583     0.12800
C2880       C  0.44266156  0.19448551  0.65078700    -0.12700
N2881       N  0.49458281  0.25262552  0.62035736     0.64400
H2882       H  0.49204670  0.21674786  0.58503958     0.12300
N2883       N  0.42821582  0.15222982  0.63729401     0.61100
H2884       H  0.42919064  0.18815497  0.66960368     0.08500
O2885       O  0.49020988  0.25879757  0.77007765    -0.40400
O2886       O  0.45209523  0.23205336  0.77836904    -0.39600
O2887       O  0.42325685  0.23820561  0.62235048    -0.39600
O2888       O  0.45481712  0.27434896  0.61670096    -0.37300
O2889       O  0.43532472  0.14097356  0.65516629    -0.38200
O2890       O  0.40615300  0.14223907  0.62910742    -0.34300
O2891       O  0.51157238  0.26249937  0.64060108    -0.35700
O2892       O  0.49571759  0.26372782  0.59484264    -0.40000
C2893       C  0.33936359  0.07196216  0.98612652    -0.13700
C2894       C  0.34329460  0.08257678  0.95561396     0.16700
C2895       C  0.36678499  0.10112452  0.94751173     0.03000
C2896       C  0.38597545  0.10765237  0.96907020    -0.12200
C2897       C  0.38649309  0.09746644  0.49940465    -0.03300
C2898       C  0.36290255  0.08100878  0.51035337     0.02200
C2899       C  0.32257739  0.07347554  0.93270849     0.09000
N2900       N  0.37151286  0.11337032  0.91745665     0.65400
H2901       H  0.40413024  0.12123792  0.96180915     0.18300
N2902       N  0.35897052  0.07167238  0.54216518     0.75900
H2903       H  0.32125139  0.05791254  0.99271961     0.09800
C2904       C  0.32192852  0.06140995  0.90387344     0.03500
C2905       C  0.30046387  0.05014955  0.88542891    -0.05200
C2906       C  0.27928563  0.04960016  0.89612694    -0.23600
C2907       C  0.28055904  0.06301792  0.92383732     0.12800
C2908       C  0.30211308  0.07495375  0.94153556    -0.12700
N2909       N  0.34172977  0.05788750  0.89498561     0.64400
H2910       H  0.29956908  0.03943377  0.86476153     0.12300
N2911       N  0.25947183  0.06300153  0.93582342     0.61100
H2912       H  0.30243452  0.08429030  0.96341284     0.08500
O2913       O  0.34771261  0.04898392  0.54659871    -0.40400
O2914       O  0.36203076  0.08569549  0.56532737    -0.39600
O2915       O  0.36457076  0.12862526  0.91283524    -0.39600
O2916       O  0.38642008  0.11253397  0.89832690    -0.37300
O2917       O  0.24855507  0.05005179  0.95971908    -0.38200
O2918       O  0.25514393  0.07954552  0.92728297    -0.34300
O2919       O  0.34795828  0.04605425  0.91316614    -0.35700
O2920       O  0.34979638  0.06245781  0.86680533    -0.40000
C2921       C  0.19530735  0.05894357  0.50447331    -0.13700
C2922       C  0.19373332  0.07938290  0.98550915     0.16700
C2923       C  0.19733186  0.08157323  0.95220844     0.03000
C2924       C  0.19618702  0.06226371  0.93448926    -0.12200
C2925       C  0.19149208  0.04036224  0.94911485    -0.03300
C2926       C  0.18852907  0.03832577  0.98256512     0.02200
C2927       C  0.19661263  0.09869505  0.51375299     0.09000
N2928       N  0.20101558  0.10287146  0.93573061     0.65400
H2929       H  0.19859785  0.06429928  0.90884684     0.18300
N2930       N  0.19440000  0.02021135  0.49787814     0.75900
H2931       H  0.19615680  0.05704018  0.53006825     0.09800
C2932       C  0.17685583  0.09455910  0.53307588     0.03500
C2933       C  0.17835441  0.11323587  0.55257886    -0.05200
C2934       C  0.19949582  0.13637277  0.55364137    -0.23600
C2935       C  0.21947911  0.14030273  0.53441498     0.12800
C2936       C  0.21560368  0.12249329  0.00591302    -0.12700
N2937       N  0.15488780  0.07159095  0.53259063     0.64400
H2938       H  0.16273360  0.10943971  0.56701324     0.12300
N2939       N  0.24185859  0.16287385  0.53519304     0.61100
H2940       H  0.23124248  0.12561816  0.99198550     0.08500
O2941       O  0.17492125  0.00300964  0.50891873    -0.40400
O2942       O  0.20020669  0.01438562  0.01124325    -0.39600
O2943       O  0.22131264  0.11675675  0.92302234    -0.39600
O2944       O  0.18294708  0.10523821  0.92876460    -0.37300
O2945       O  0.25815396  0.16579223  0.55497216    -0.38200
O2946       O  0.24236603  0.18001796  0.00454335    -0.34300
O2947       O  0.15007433  0.05701916  0.55554133    -0.35700
O2948       O  0.13871980  0.06755644  0.51201775    -0.40000
C2949       C  0.20869799  0.11055212  0.71143531    -0.13700
C2950       C  0.19486280  0.10722369  0.73902754     0.16700
C2951       C  0.18247779  0.12037757  0.74256956     0.03000
C2952       C  0.18351145  0.13588752  0.71806567    -0.12200
C2953       C  0.19743989  0.13928667  0.69050583    -0.03300
C2954       C  0.21021869  0.12650395  0.68736129     0.02200
C2955       C  0.19385218  0.08984160  0.76343640     0.09000
N2956       N  0.16986154  0.11917096  0.77142068     0.65400
H2957       H  0.17396568  0.14593988  0.72104364     0.18300
N2958       N  0.22390549  0.12863600  0.65928544     0.75900
H2959       H  0.21815294  0.10041334  0.70837615     0.09800
C2960       C  0.17182207  0.06922015  0.77257376     0.03500
C2961       C  0.17228378  0.05212524  0.79332202    -0.05200
C2962       C  0.19439942  0.05470174  0.80439880    -0.23600
C2963       C  0.21631352  0.07590435  0.79614502     0.12800
C2964       C  0.21579643  0.09318473  0.77599781    -0.12700
N2965       N  0.14905458  0.06428672  0.75907279     0.64400
H2966       H  0.15528480  0.03597839  0.79907461     0.12300
N2967       N  0.23935724  0.08003288  0.80737217     0.61100
H2968       H  0.23277113  0.10907701  0.76939690     0.08500
O2969       O  0.21353922  0.11483967  0.63570060    -0.40400
O2970       O  0.24680103  0.14103040  0.66020683    -0.39600
O2971       O  0.18156249  0.12644253  0.79733710    -0.39600
O2972       O  0.14831406  0.11520631  0.77008154    -0.37300
O2973       O  0.25280290  0.07617137  0.78897332    -0.38200
O2974       O  0.24793542  0.09138399  0.83325991    -0.34300
O2975       O  0.14509515  0.05956887  0.72962997    -0.35700
O2976       O  0.13153726  0.06003115  0.77724111    -0.40000
C2977       C  0.39412300  0.85220699  0.56914710    -0.13700
C2978       C  0.41673289  0.85847280  0.58329210     0.16700
C2979       C  0.42014566  0.86469660  0.61604353     0.03000
C2980       C  0.40105309  0.86358994  0.63402169    -0.12200
C2981       C  0.37821684  0.85644550  0.62027370    -0.03300
C2982       C  0.37490920  0.85104809  0.58736548     0.02200
C2983       C  0.43648609  0.85840214  0.56377664     0.09000
N2984       N  0.44254018  0.87111693  0.63191387     0.65400
H2985       H  0.40396525  0.86786024  0.65927030     0.18300
N2986       N  0.35179711  0.84283914  0.57257008     0.75900
H2987       H  0.39123702  0.84784936  0.54396834     0.09800
C2988       C  0.43228275  0.83795877  0.54544131     0.03500
C2989       C  0.45092868  0.83866224  0.52673675    -0.05200
C2990       C  0.47431944  0.85935277  0.52598361    -0.23600
C2991       C  0.47875347  0.87956062  0.54523199     0.12800
C2992       C  0.45986592  0.87904870  0.56335317    -0.12700
N2993       N  0.40927386  0.81603333  0.54603000     0.64400
H2994       H  0.44686653  0.82280044  0.51254296     0.12300
N2995       N  0.50230708  0.90074658  0.54691551     0.61100
H2996       H  0.46350515  0.89500733  0.57699273     0.08500
O2997       O  0.33640364  0.82041142  0.57208984    -0.40400
O2998       O  0.34842792  0.85724175  0.55539991    -0.39600
O2999       O  0.45603351  0.89270721  0.64138280    -0.39600
O3000       O  0.44635837  0.85455909  0.64195629    -0.37300
O3001       O  0.50651117  0.91965134  0.53180874    -0.38200
O3002       O  0.51750499  0.90180451  0.56729575    -0.34300
O3003       O  0.39608899  0.80935254  0.52128153    -0.35700
O3004       O  0.40445240  0.80120935  0.56867129    -0.40000
C3005       C  0.43488526  0.87798472  0.79326026    -0.13700
C3006       C  0.42965166  0.85586442  0.80730334     0.16700
C3007       C  0.40836854  0.83437003  0.79837721     0.03000
C3008       C  0.39210146  0.83560698  0.77692477    -0.12200
C3009       C  0.39633574  0.85806641  0.76474577    -0.03300
C3010       C  0.41850265  0.87928566  0.77210562     0.02200
C3011       C  0.44508746  0.85631373  0.83397950     0.09000
N3012       N  0.40184686  0.81158602  0.81310938     0.65400
H3013       H  0.37522930  0.81906349  0.77168181     0.18300
N3014       N  0.42450109  0.90235483  0.75885762     0.75900
H3015       H  0.45140956  0.89452432  0.79974742     0.09800
C3016       C  0.45820838  0.84379907  0.83282719     0.03500
C3017       C  0.47191859  0.84440342  0.85942200    -0.05200
C3018       C  0.47334235  0.85792172  0.88677976    -0.23600
C3019       C  0.46016358  0.87037644  0.88782922     0.12800
C3020       C  0.44617016  0.86943949  0.86151610    -0.12700
N3021       N  0.45895555  0.83168425  0.80433959     0.64400
H3022       H  0.48234875  0.83513544  0.85816795     0.12300
N3023       N  0.46005531  0.88325261  0.91584566     0.61100
H3024       H  0.43579148  0.87876757  0.86270853     0.08500
O3025       O  0.43581868  0.90885412  0.73272693    -0.40400
O3026       O  0.42293299  0.91789133  0.77601309    -0.39600
O3027       O  0.39325068  0.80739834  0.84102373    -0.39600
O3028       O  0.39972861  0.79415260  0.79615935    -0.37300
O3029       O  0.46961470  0.90609957  0.91512485    -0.38200
O3030       O  0.44740056  0.87161798  0.93959397    -0.34300
O3031       O  0.46907500  0.84402505  0.77970036    -0.35700
O3032       O  0.45389384  0.80976512  0.80557598    -0.40000
C3033       C  0.26766007  0.94286909  0.81941596    -0.13700
C3034       C  0.25140993  0.92342619  0.79987362     0.16700
C3035       C  0.22621929  0.91387003  0.80442623     0.03000
C3036       C  0.21792717  0.92526391  0.82585449    -0.12200
C3037       C  0.23428715  0.94586760  0.84359906    -0.03300
C3038       C  0.25933913  0.95401758  0.84113535     0.02200
C3039       C  0.26122775  0.91348998  0.77514488     0.09000
N3040       N  0.20886737  0.89386081  0.78562756     0.65400
H3041       H  0.19865195  0.91913258  0.82676463     0.18300
N3042       N  0.27667693  0.97489035  0.85864013     0.75900
H3043       H  0.28703620  0.94990346  0.81717206     0.09800
C3044       C  0.27768179  0.92858963  0.75142496     0.03500
C3045       C  0.28937649  0.91972562  0.73143635    -0.05200
C3046       C  0.28495194  0.89584006  0.73447480    -0.23600
C3047       C  0.26750735  0.88037784  0.75698291     0.12800
C3048       C  0.25581123  0.88920861  0.77691288    -0.12700
N3049       N  0.28329213  0.95326605  0.74807127     0.64400
H3050       H  0.30310079  0.93203074  0.71489328     0.12300
N3051       N  0.26281671  0.85609311  0.76150885     0.61100
H3052       H  0.24340610  0.87736285  0.79501881     0.08500
O3053       O  0.28971218  0.99464542  0.84418383    -0.40400
O3054       O  0.28190736  0.97244522  0.88700184    -0.39600
O3055       O  0.19569187  0.87349404  0.79865360    -0.39600
O3056       O  0.20392444  0.89754098  0.75767953    -0.37300
O3057       O  0.27074984  0.85100488  0.78625434    -0.38200
O3058       O  0.24686952  0.83910786  0.74462322    -0.34300
O3059       O  0.30394618  0.97033652  0.75635349    -0.35700
O3060       O  0.26907400  0.95800847  0.73259351    -0.40000
C3061       C  0.41616649  0.96629196  0.62993330    -0.13700
C3062       C  0.41324762  0.98650572  0.63502931     0.16700
C3063       C  0.39928748  0.98633598  0.66136109     0.03000
C3064       C  0.38737704  0.96556581  0.68092943    -0.12200
C3065       C  0.38890225  0.94462766  0.67444074    -0.03300
C3066       C  0.40402366  0.94544153  0.64907818     0.02200
C3067       C  0.42200342  0.00597701  0.61024191     0.09000
N3068       N  0.39581471  0.00658268  0.66724277     0.65400
H3069       H  0.37536499  0.96512595  0.69956272     0.18300
N3070       N  0.40554559  0.92439792  0.64068802     0.75900
H3071       H  0.42665740  0.96607239  0.60970263     0.09800
C3072       C  0.44653837  0.02445980  0.60818698     0.03500
C3073       C  0.45367029  0.04283613  0.58497756    -0.05200
C3074       C  0.43671768  0.04325307  0.56357389    -0.23600
C3075       C  0.41250072  0.02395664  0.56459044     0.12800
C3076       C  0.40536963  0.00557151  0.58770024    -0.12700
N3077       N  0.46397730  0.02597135  0.63113288     0.64400
H3078       H  0.47205478  0.05806255  0.58565188     0.12300
N3079       N  0.39447113  0.02399227  0.54413201     0.61100
H3080       H  0.38654468  0.99125979  0.58866563     0.08500
O3081       O  0.42227704  0.92157510  0.65252383    -0.40400
O3082       O  0.39393598  0.91192776  0.61665861    -0.39600
O3083       O  0.37630562  0.00567706  0.65865834    -0.39600
O3084       O  0.41087332  0.02404347  0.68435916    -0.37300
O3085       O  0.38515020  0.01078098  0.01898823    -0.38200
O3086       O  0.37813122  0.02743133  0.55582522    -0.34300
O3087       O  0.48213466  0.02448404  0.62206036    -0.35700
O3088       O  0.46336206  0.03270757  0.65933994    -0.40000
C3089       C  0.87404993  0.77798722  0.76050615    -0.13700
C3090       C  0.89772042  0.79799763  0.76209197     0.16700
C3091       C  0.90282598  0.81681919  0.78415342     0.03000
C3092       C  0.88428071  0.81550900  0.80356049    -0.12200
C3093       C  0.86058598  0.79545103  0.80199263    -0.03300
C3094       C  0.85567956  0.77634065  0.78044165     0.02200
C3095       C  0.91599494  0.79960050  0.73861043     0.09000
N3096       N  0.92678681  0.83724165  0.78746095     0.65400
H3097       H  0.88854619  0.83025062  0.82011647     0.18300
N3098       N  0.83192776  0.75557701  0.77737083     0.75900
H3099       H  0.86952279  0.76377487  0.74299580     0.09800
C3100       C  0.91911574  0.77943793  0.73235790     0.03500
C3101       C  0.93336660  0.78006625  0.70663993    -0.05200
C3102       C  0.94560445  0.80085731  0.68758182    -0.23600
C3103       C  0.94367479  0.82157076  0.69482149     0.12800
C3104       C  0.92842123  0.82053022  0.71963457    -0.12700
N3105       N  0.90806950  0.75822115  0.75204773     0.64400
H3106       H  0.93522339  0.76426999  0.70187506     0.12300
N3107       N  0.95613778  0.84336995  0.67643455     0.61100
H3108       H  0.92578119  0.83593280  0.72343283     0.08500
O3109       O  0.82709883  0.73604968  0.79131646    -0.40400
O3110       O  0.81748825  0.75541580  0.75644911    -0.39600
O3111       O  0.93070214  0.85827273  0.78062992    -0.39600
O3112       O  0.94279472  0.83486119  0.80233644    -0.37300
O3113       O  0.94417675  0.84924348  0.65797021    -0.38200
O3114       O  0.97752124  0.85917208  0.68418940    -0.34300
O3115       O  0.89405621  0.73769899  0.73970463    -0.35700
O3116       O  0.91528469  0.75942980  0.78047511    -0.40000
C3117       C  0.90474032  0.80486983  0.53247164    -0.13700
C3118       C  0.89274723  0.78544518  0.51097472     0.16700
C3119       C  0.89780272  0.77226229  0.02619761     0.03000
C3120       C  0.91994303  0.77057074  0.52789163    -0.12200
C3121       C  0.93213845  0.79013125  0.54940326    -0.03300
C3122       C  0.92416436  0.80739278  0.55146938     0.02200
C3123       C  0.88124498  0.79467212  0.99436116     0.09000
N3124       N  0.87565568  0.74983972  0.02152039     0.65400
H3125       H  0.92537908  0.75691756  0.52590094     0.18300
N3126       N  0.93498905  0.82726764  0.57345948     0.75900
H3127       H  0.89933088  0.81856348  0.53407956     0.09800
C3128       C  0.86895311  0.80716798  0.00330997     0.03500
C3129       C  0.85203168  0.80803787  0.98233584    -0.05200
C3130       C  0.84781604  0.79740905  0.95185439    -0.23600
C3131       C  0.86033997  0.78509947  0.94282721     0.12800
C3132       C  0.87645582  0.78343975  0.96427293    -0.12700
N3133       N  0.84756429  0.78332044  0.53304513     0.64400
H3134       H  0.84292366  0.81790489  0.98937451     0.12300
N3135       N  0.85728603  0.77457451  0.91169441     0.61100
H3136       H  0.88606256  0.77414644  0.95686184     0.08500
O3137       O  0.92386587  0.82631027  0.59882545    -0.40400
O3138       O  0.95238461  0.84741562  0.56440967    -0.39600
O3139       O  0.87524678  0.73382135  0.00320030    -0.39600
O3140       O  0.85779011  0.74451738  0.03953766    -0.37300
O3141       O  0.87055359  0.78751066  0.88911577    -0.38200
O3142       O  0.84608958  0.75173688  0.90872149    -0.34300
O3143       O  0.84971585  0.80156929  0.54805228    -0.35700
O3144       O  0.83645414  0.76258843  0.54583134    -0.40000
C3145       C  0.09293521  0.87137687  0.51348842    -0.13700
C3146       C  0.08276392  0.87990122  0.49072003     0.16700
C3147       C  0.05766909  0.87157398  0.49132644     0.03000
C3148       C  0.04339170  0.85580337  0.51553957    -0.12200
C3149       C  0.05358848  0.84778724  0.53918585    -0.03300
C3150       C  0.07865112  0.85541928  0.53759921     0.02200
C3151       C  0.10315147  0.89663713  0.97921387     0.09000
N3152       N  0.06401867  0.84747162  0.96527990     0.65400
H3153       H  0.02413905  0.84976370  0.51570287     0.18300
N3154       N  0.09018044  0.84811798  0.56098319     0.75900
H3155       H  0.11227255  0.87778910  0.51314063     0.09800
C3156       C  0.09611861  0.90833654  0.95657016     0.03500
C3157       C  0.11331472  0.92479031  0.93510179    -0.05200
C3158       C  0.13771659  0.93028757  0.93636644    -0.23600
C3159       C  0.14438409  0.91786452  0.95874592     0.12800
C3160       C  0.12705103  0.90113456  0.97967214    -0.12700
N3161       N  0.09212357  0.92973849  0.49403483     0.64400
H3162       H  0.10773026  0.93409514  0.91835267     0.12300
N3163       N  0.16893760  0.92311142  0.96217249     0.61100
H3164       H  0.13249706  0.89220689  0.99723853     0.08500
O3165       O  0.09936909  0.86098292  0.58566598    -0.40400
O3166       O  0.09489074  0.83148662  0.55437370    -0.39600
O3167       O  0.07648170  0.83846967  0.95489908    -0.39600
O3168       O  0.04508582  0.84354675  0.95037357    -0.37300
O3169       O  0.18283865  0.93925769  0.98177376    -0.38200
O3170       O  0.17514671  0.90863315  0.95063675    -0.34300
O3171       O  0.09863323  0.93086539  0.52281069    -0.35700
O3172       O  0.07957688  0.93929979  0.48608573    -0.40000
C3173       C  0.09716134  0.87020343  0.71313601    -0.13700
C3174       C  0.09678661  0.89186624  0.71858392     0.16700
C3175       C  0.07894342  0.89521963  0.70302785     0.03000
C3176       C  0.06173550  0.87695782  0.68299546    -0.12200
C3177       C  0.06182055  0.85505187  0.67767325    -0.03300
C3178       C  0.08005087  0.85194185  0.69292717     0.02200
C3179       C  0.11492049  0.91055450  0.74085228     0.12600
N3180       N  0.07763182  0.91683917  0.70793639     0.65400
H3181       H  0.04812174  0.88000769  0.67168266     0.18300
N3182       N  0.08208173  0.83079016  0.68740074     0.75900
H3183       H  0.11105049  0.86755122  0.72438579     0.09800
C3184       C  0.11637906  0.90487338  0.77306139     0.03500
C3185       C  0.13310641  0.92280063  0.79379774    -0.05200
C3186       C  0.14875625  0.94663451  0.78320530    -0.23600
C3187       C  0.14779440  0.95224655  0.75081443     0.12800
C3188       C  0.13100836  0.93422790  0.72993327    -0.12700
N3189       N  0.10022673  0.88121689  0.78546296     0.64400
H3190       H  0.13352268  0.91815590  0.81860588     0.12300
N3191       N  0.16257929  0.97646361  0.73926928     0.61100
H3192       H  0.13032932  0.93882673  0.70520120     0.08500
O3193       O  0.07314708  0.81355374  0.70723333    -0.40400
O3194       O  0.09635770  0.83122277  0.66615140    -0.39600
O3195       O  0.08599097  0.93328300  0.68696631    -0.39600
O3196       O  0.06382150  0.91719014  0.72929769    -0.37300
O3197       O  0.18097057  0.98158975  0.72243697    -0.38200
O3198       O  0.15519670  0.99155801  0.74163411    -0.34300
O3199       O  0.10810072  0.86689062  0.79154889    -0.35700
O3200       O  0.07954734  0.87634216  0.79544947    -0.40000
C3201       C  0.05600731  0.69762793  0.55112388    -0.13700
C3202       C  0.03148788  0.68404826  0.54209175     0.16700
C3203       C  0.02326766  0.66178035  0.52594579     0.03000
C3204       C  0.04010467  0.65479796  0.51621324    -0.12200
C3205       C  0.06516054  0.67000374  0.52182717    -0.03300
C3206       C  0.07283931  0.69087576  0.54118911     0.02200
C3207       C  0.01656087  0.69599084  0.54502548     0.09000
N3208       N  0.99842245  0.64732260  0.51645365     0.65400
H3209       H  0.03380030  0.63874725  0.50136081     0.18300
N3210       N  0.10050606  0.70483882  0.04477548     0.75900
H3211       H  0.06243540  0.71456709  0.56407841     0.09800
C3212       C  0.99921804  0.69014302  0.56933243     0.03500
C3213       C  0.99043606  0.70609830  0.57605332    -0.05200
C3214       C  0.99923016  0.72820733  0.55949061    -0.23600
C3215       C  0.01490649  0.73282357  0.53335239     0.12800
C3216       C  0.02320183  0.71665297  0.52620902    -0.12700
N3217       N  0.99235441  0.66855289  0.07968155     0.64400
H3218       H  0.97858026  0.70230455  0.59638387     0.12300
N3219       N  0.02382562  0.75464820  0.51512574     0.61100
H3220       H  0.03639368  0.72121675  0.50726553     0.08500
O3221       O  0.10795737  0.69935591  0.06967176    -0.40400
O3222       O  0.11357047  0.72535142  0.03203800    -0.39600
O3223       O  0.99135216  0.65207210  0.49063814    -0.39600
O3224       O  0.98522275  0.62712959  0.52986963    -0.37300
O3225       O  0.01321554  0.75432800  0.48943471    -0.38200
O3226       O  0.04474956  0.77233176  0.52091382    -0.34300
O3227       O  0.00389980  0.66714781  0.10341613    -0.35700
O3228       O  0.97046885  0.65231298  0.07552406    -0.40000
C3229       C  0.22817444  0.78686969  0.61485806    -0.13700
C3230       C  0.23096182  0.76940372  0.59784833     0.16700
C3231       C  0.25194301  0.76750573  0.60265344     0.03000
C3232       C  0.26983288  0.78318306  0.62417560    -0.12200
C3233       C  0.26762959  0.80143171  0.64028230    -0.03300
C3234       C  0.24629973  0.80289574  0.63591840     0.02200
C3235       C  0.21228169  0.75387912  0.57424057     0.09000
N3236       N  0.25628547  0.75118721  0.58389325     0.65400
H3237       H  0.28625507  0.78207992  0.62665199     0.18300
N3238       N  0.24270661  0.82045821  0.65275126     0.75900
H3239       H  0.21198763  0.78826929  0.61141460     0.09800
C3240       C  0.19792986  0.72862078  0.57874320     0.03500
C3241       C  0.18248651  0.71407994  0.55428466    -0.05200
C3242       C  0.18050418  0.72435619  0.52553530    -0.23600
C3243       C  0.19393075  0.74985391  0.52171950     0.12800
C3244       C  0.20980014  0.76437191  0.54602264    -0.12700
N3245       N  0.19835656  0.71760245  0.60834280     0.64400
H3246       H  0.17179111  0.69460037  0.55790473     0.12300
N3247       N  0.20112777  0.75761964  0.98884060     0.61100
H3248       H  0.22080876  0.78382842  0.54246069     0.08500
O3249       O  0.23170413  0.81482133  0.67914075    -0.40400
O3250       O  0.24629497  0.83954875  0.63867193    -0.39600
O3251       O  0.26236912  0.75616409  0.55499716    -0.39600
O3252       O  0.25890248  0.73489152  0.59751515    -0.37300
O3253       O  0.19259695  0.77156275  0.98407506    -0.38200
O3254       O  0.21497595  0.75634922  0.96830309    -0.34300
O3255       O  0.18768889  0.72000322  0.63229495    -0.35700
O3256       O  0.20469945  0.70164659  0.60877478    -0.40000
C3257       C  0.20808388  0.75966763  0.84891814    -0.13700
C3258       C  0.23203554  0.76492275  0.85484580     0.16700
C3259       C  0.23626561  0.75267546  0.87984691     0.03000
C3260       C  0.21668174  0.73472718  0.89730761    -0.12200
C3261       C  0.19248524  0.72889093  0.89109947    -0.03300
C3262       C  0.18847329  0.74223425  0.86705477     0.02200
C3263       C  0.25198700  0.78169060  0.83306115     0.09000
N3264       N  0.26035431  0.75785140  0.88733725     0.65400
H3265       H  0.22059442  0.72540686  0.91603112     0.18300
N3266       N  0.16472231  0.73850292  0.86071569     0.75900
H3267       H  0.20459090  0.76917578  0.83001302     0.09800
C3268       C  0.25179821  0.77517285  0.80092267     0.03500
C3269       C  0.27007755  0.79096741  0.78018117    -0.05200
C3270       C  0.28938661  0.81360568  0.79054419    -0.23600
C3271       C  0.28977960  0.82008878  0.82307300     0.12800
C3272       C  0.27111470  0.80417271  0.84393159    -0.12700
N3273       N  0.23343156  0.75205388  0.78913863     0.64400
H3274       H  0.26900536  0.78517724  0.75559358     0.12300
N3275       N  0.30896550  0.84251052  0.83544796     0.61100
H3276       H  0.27153128  0.80940259  0.86865931     0.08500
O3277       O  0.15322277  0.72662387  0.83627437    -0.40400
O3278       O  0.15742504  0.75091893  0.87572407    -0.39600
O3279       O  0.27147000  0.77149285  0.91076160    -0.39600
O3280       O  0.26873294  0.74564297  0.87428344    -0.37300
O3281       O  0.30523186  0.85998506  0.84061053    -0.38200
O3282       O  0.32784082  0.84331316  0.84661767    -0.34300
O3283       O  0.21706225  0.75080693  0.77073548    -0.35700
O3284       O  0.23582956  0.73361908  0.79290934    -0.40000
C3285       C  0.93738322  0.65037706  0.73517482    -0.13700
C3286       C  0.95761839  0.65489352  0.71699872     0.16700
C3287       C  0.96285561  0.63600783  0.71197679     0.03000
C3288       C  0.94701342  0.61253434  0.72380844    -0.12200
C3289       C  0.92573623  0.60764274  0.74013597    -0.03300
C3290       C  0.92147927  0.62716795  0.74664503     0.02200
C3291       C  0.96993326  0.67819870  0.69944270     0.09000
N3292       N  0.98364658  0.64020305  0.69399098     0.65400
H3293       H  0.95094846  0.59802416  0.71939084     0.18300
N3294       N  0.90114242  0.62388090  0.76516855     0.75900
H3295       H  0.93330570  0.66484140  0.73931440     0.09800
C3296       C  0.95754137  0.68157425  0.67382781     0.03500
C3297       C  0.96572842  0.70475029  0.66159560    -0.05200
C3298       C  0.98654210  0.72503069  0.67390227    -0.23600
C3299       C  0.99977986  0.72171637  0.69857674     0.12800
C3300       C  0.99124133  0.69827980  0.71145984    -0.12700
N3301       N  0.93573938  0.66167124  0.66110549     0.64400
H3302       H  0.95550599  0.70694794  0.64237814     0.12300
N3303       N  0.02054076  0.74206789  0.71246480     0.61100
H3304       H  0.00050785  0.69595676  0.73174686     0.08500
O3305       O  0.88237561  0.62132598  0.75114224    -0.40400
O3306       O  0.90387034  0.62870875  0.79466531    -0.39600
O3307       O  0.00346479  0.64654588  0.70827507    -0.39600
O3308       O  0.98110069  0.63330624  0.66524812    -0.37300
O3309       O  0.01777446  0.75348623  0.73527835    -0.38200
O3310       O  0.04155488  0.74599544  0.70574147    -0.34300
O3311       O  0.91537863  0.65897109  0.66907215    -0.35700
O3312       O  0.93697115  0.64937362  0.63821102    -0.40000
C3313       C  0.77966903  0.54456172  0.70049324    -0.13700
C3314       C  0.77867279  0.53330723  0.67120531     0.16700
C3315       C  0.79343436  0.52274973  0.66655409     0.03000
C3316       C  0.80804275  0.52272742  0.69167372    -0.12200
C3317       C  0.80894684  0.53388512  0.72105540    -0.03300
C3318       C  0.79474101  0.54510245  0.72526668     0.02200
C3319       C  0.76115260  0.53197308  0.64673635     0.09000
N3320       N  0.79457649  0.51294454  0.63619347     0.65400
H3321       H  0.81931886  0.51457787  0.68786838     0.18300
N3322       N  0.79447277  0.55605971  0.75501667     0.75900
H3323       H  0.76824723  0.55253986  0.70439021     0.09800
C3324       C  0.74197438  0.50949995  0.63575248     0.03500
C3325       C  0.72433485  0.50912785  0.61525338    -0.05200
C3326       C  0.72474124  0.53072262  0.60637221    -0.23600
C3327       C  0.74450828  0.55322777  0.61655245     0.12800
C3328       C  0.76246151  0.55360948  0.63641617    -0.12700
N3329       N  0.73886364  0.48689272  0.64738205     0.64400
H3330       H  0.70931944  0.49163709  0.60803847     0.12300
N3331       N  0.74643355  0.57586891  0.60765098     0.61100
H3332       H  0.77721453  0.57095578  0.64461363     0.08500
O3333       O  0.77893573  0.54352272  0.77588516    -0.40400
O3334       O  0.80646840  0.57889736  0.75795931    -0.39600
O3335       O  0.80270832  0.52683728  0.61231563    -0.39600
O3336       O  0.79187269  0.49185740  0.63453639    -0.37300
O3337       O  0.74150457  0.58758473  0.62780245    -0.38200
O3338       O  0.75710691  0.58608633  0.58208168    -0.34300
O3339       O  0.73475214  0.48183432  0.67667790    -0.35700
O3340       O  0.73571891  0.47036591  0.62786845    -0.40000
C3341       C  0.72533174  0.52754357  0.90117517    -0.13700
C3342       C  0.74633933  0.52901162  0.91471032     0.16700
C3343       C  0.74837581  0.52891321  0.94818311     0.03000
C3344       C  0.72945088  0.52670381  0.96745996    -0.12200
C3345       C  0.70815439  0.52477654  0.95422139    -0.03300
C3346       C  0.70640700  0.52574367  0.92058128     0.02200
C3347       C  0.76612826  0.53070251  0.89393860     0.09000
N3348       N  0.76931625  0.53026012  0.96302756     0.65400
H3349       H  0.73065091  0.52559119  0.49904576     0.18300
N3350       N  0.68558891  0.52465348  0.90567645     0.75900
H3351       H  0.72373280  0.52803279  0.87546984     0.09800
C3352       C  0.76203080  0.51194242  0.87245355     0.03500
C3353       C  0.78126862  0.51348650  0.85431016    -0.05200
C3354       C  0.80499472  0.53359486  0.85693845    -0.23600
C3355       C  0.80892079  0.55262341  0.87822052     0.12800
C3356       C  0.78958154  0.55099816  0.89637596    -0.12700
N3357       N  0.73853903  0.49078916  0.86949458     0.64400
H3358       H  0.77746636  0.49869952  0.83809307     0.12300
N3359       N  0.83233107  0.57376845  0.88179905     0.61100
H3360       H  0.79290986  0.56568681  0.91252435     0.08500
O3361       O  0.67100479  0.50586690  0.89018629    -0.40400
O3362       O  0.68488286  0.54402597  0.90182684    -0.39600
O3363       O  0.78339542  0.54690769  0.48208495    -0.39600
O3364       O  0.77050776  0.51113417  0.96667169    -0.37300
O3365       O  0.83719384  0.59290182  0.86677417    -0.38200
O3366       O  0.84621213  0.57470277  0.90408199    -0.34300
O3367       O  0.72616769  0.48744696  0.84440484    -0.35700
O3368       O  0.73186127  0.47381758  0.88955301    -0.40000
C3369       C  0.97258311  0.60610747  0.87989700    -0.13700
C3370       C  0.98661392  0.62688557  0.86130107     0.16700
C3371       C  0.97513981  0.63302373  0.83713395     0.03000
C3372       C  0.95018129  0.61781368  0.83112981    -0.12200
C3373       C  0.93651679  0.59596367  0.84809697    -0.03300
C3374       C  0.94783517  0.59057518  0.87334251     0.02200
C3375       C  0.01343227  0.63995156  0.86572223     0.09000
N3376       N  0.98896478  0.65310284  0.81633894     0.65400
H3377       H  0.94210866  0.62190198  0.81101973     0.18300
N3378       N  0.93470038  0.56883643  0.89162958     0.75900
H3379       H  0.98120453  0.60127498  0.89862505     0.09800
C3380       C  0.02569731  0.66137756  0.88412947     0.03500
C3381       C  0.04963352  0.66951591  0.89460461    -0.05200
C3382       C  0.06168261  0.65664607  0.88672818    -0.23600
C3383       C  0.05025534  0.63689064  0.86515088     0.12800
C3384       C  0.02627012  0.62858326  0.85520095    -0.12700
N3385       N  0.01350272  0.67399237  0.89431528     0.64400
H3386       H  0.05799219  0.68472283  0.91109458     0.12300
N3387       N  0.06250881  0.62456460  0.85396318     0.61100
H3388       H  0.01720127  0.61242690  0.84037401     0.08500
O3389       O  0.92382668  0.56918572  0.91664363    -0.40400
O3390       O  0.93781728  0.55098219  0.88636156    -0.39600
O3391       O  0.99891535  0.65006877  0.79205763    -0.39600
O3392       O  0.98671251  0.67174203  0.81814855    -0.37300
O3393       O  0.05624098  0.60353508  0.86416230    -0.38200
O3394       O  0.07567859  0.63237664  0.82942189    -0.34300
O3395       O  0.00410950  0.67001720  0.92172820    -0.35700
O3396       O  0.01612518  0.69212587  0.87865088    -0.40000
C3397       C  0.75569271  0.19890496  0.90442530    -0.13700
C3398       C  0.76261524  0.22319700  0.89764739     0.16700
C3399       C  0.75116831  0.22822698  0.87240817     0.03000
C3400       C  0.73299577  0.20912595  0.85457353    -0.12200
C3401       C  0.72584015  0.18464667  0.86113859    -0.03300
C3402       C  0.73759413  0.17967552  0.88633715     0.02200
C3403       C  0.78107396  0.24306767  0.91791471     0.09000
N3404       N  0.75741596  0.25267098  0.86508177     0.65400
H3405       H  0.72460361  0.21364271  0.83520711     0.18300
N3406       N  0.73124119  0.15531094  0.89419477     0.75900
H3407       H  0.76441640  0.19486985  0.92386118     0.09800
C3408       C  0.77606364  0.24509795  0.95003227     0.03500
C3409       C  0.79334834  0.26405918  0.96880408    -0.05200
C3410       C  0.81608762  0.28152372  0.95642592    -0.23600
C3411       C  0.82119086  0.27936245  0.92408000     0.12800
C3412       C  0.80363027  0.26029154  0.90510398    -0.12700
N3413       N  0.75304239  0.22850263  0.96370334     0.64400
H3414       H  0.78610397  0.26166729  0.49577023     0.12300
N3415       N  0.84387337  0.29631580  0.90998732     0.61100
H3416       H  0.80764178  0.25884111  0.88037062     0.08500
O3417       O  0.71637187  0.14445866  0.91646331    -0.40400
O3418       O  0.74375493  0.14652658  0.88328172    -0.39600
O3419       O  0.77052783  0.26311559  0.84113936    -0.39600
O3420       O  0.74673256  0.26225835  0.87922623    -0.37300
O3421       O  0.86108540  0.29175394  0.90992571    -0.38200
O3422       O  0.84513141  0.31306896  0.89244132    -0.34300
O3423       O  0.74973569  0.20878143  0.48458405    -0.35700
O3424       O  0.73613476  0.23350565  0.96307426    -0.40000
C3425       C  0.75614301  0.19814402  0.69014156    -0.13700
C3426       C  0.75416923  0.21830422  0.68080612     0.16700
C3427       C  0.73516970  0.22123436  0.69332487     0.03000
C3428       C  0.71914877  0.20456024  0.71569289    -0.12200
C3429       C  0.72177292  0.18491360  0.72607938    -0.03300
C3430       C  0.74030628  0.18159923  0.71258634     0.02200
C3431       C  0.77199226  0.23573838  0.65768191     0.09000
N3432       N  0.73236231  0.24143909  0.68435206     0.65400
H3433       H  0.70502457  0.20741946  0.72560957     0.18300
N3434       N  0.74269285  0.16095452  0.72028948     0.75900
H3435       H  0.77000633  0.19509954  0.67972893     0.09800
C3436       C  0.79717933  0.24638126  0.66329194     0.03500
C3437       C  0.81367587  0.26191013  0.64060487    -0.05200
C3438       C  0.80569656  0.26765207  0.61231111    -0.23600
C3439       C  0.78044858  0.25660412  0.60635789     0.12800
C3440       C  0.76388305  0.24070736  0.62893531    -0.12700
N3441       N  0.80632531  0.24247106  0.69262240     0.64400
H3442       H  0.83291667  0.27042581  0.64598993     0.12300
N3443       N  0.77132810  0.26064709  0.57713066     0.61100
H3444       H  0.74460160  0.23194955  0.62377703     0.08500
O3445       O  0.75904347  0.16330352  0.73959601    -0.40400
O3446       O  0.73212235  0.14213285  0.70304923    -0.39600
O3447       O  0.71433262  0.23794810  0.66759329    -0.39600
O3448       O  0.74549711  0.26190183  0.69734868    -0.37300
O3449       O  0.76803836  0.24697998  0.55346811    -0.38200
O3450       O  0.76205505  0.27422036  0.57698801    -0.34300
O3451       O  0.81810391  0.23127074  0.69242093    -0.35700
O3452       O  0.80620368  0.25363200  0.71754357    -0.40000
C3453       C  0.88919295  0.46180298  0.67944504    -0.13700
C3454       C  0.87022293  0.43753688  0.68208981     0.16700
C3455       C  0.85155606  0.43231663  0.70417947     0.03000
C3456       C  0.85212282  0.45090268  0.72312764    -0.12200
C3457       C  0.87116879  0.47525418  0.72101386    -0.03300
C3458       C  0.88989759  0.48052281  0.69864893     0.02200
C3459       C  0.86982293  0.41778185  0.66169605     0.09000
N3460       N  0.83145832  0.40817559  0.70714988     0.65400
H3461       H  0.83743355  0.44600437  0.73987442     0.18300
N3462       N  0.90980909  0.50469380  0.69507984     0.75900
H3463       H  0.90372313  0.46621642  0.66259958     0.09800
C3464       C  0.86772185  0.41795711  0.62818007     0.03500
C3465       C  0.86569163  0.39846165  0.60978244    -0.05200
C3466       C  0.86595118  0.37839052  0.62379823    -0.23600
C3467       C  0.86930939  0.37876505  0.65724637     0.12800
C3468       C  0.87090396  0.39815978  0.67584551    -0.12700
N3469       N  0.86664645  0.43739035  0.61245166     0.64400
H3470       H  0.86365023  0.39892613  0.58422938     0.12300
N3471       N  0.87035012  0.35929897  0.67286544     0.61100
H3472       H  0.87288537  0.39783999  0.70150195     0.08500
O3473       O  0.90908227  0.51824558  0.67356742    -0.40400
O3474       O  0.92953170  0.51096901  0.70958804    -0.39600
O3475       O  0.82996771  0.39559084  0.73127275    -0.39600
O3476       O  0.81345297  0.40101733  0.68858771    -0.37300
O3477       O  0.89071892  0.36101151  0.67825577    -0.38200
O3478       O  0.85159124  0.34266723  0.68613289    -0.34300
O3479       O  0.88440880  0.45235403  0.59588060    -0.35700
O3480       O  0.84667284  0.43713381  0.61063001    -0.40000
C3481       C  0.84781480  0.40198908  0.92538529    -0.13700
C3482       C  0.86762386  0.42570509  0.92709640     0.16700
C3483       C  0.88610903  0.43143109  0.94987885     0.03000
C3484       C  0.88491259  0.41315907  0.96979113    -0.12200
C3485       C  0.86514022  0.38938298  0.96797495    -0.03300
C3486       C  0.84642108  0.38382279  0.94560496     0.02200
C3487       C  0.86873066  0.44394403  0.90430747     0.09000
N3488       N  0.90564121  0.45582367  0.95384155     0.65400
H3489       H  0.89929831  0.41761743  0.98708548     0.18300
N3490       N  0.84095267  0.39836797  0.51271491     0.75900
H3491       H  0.83366544  0.39743828  0.90768128     0.09800
C3492       C  0.88632618  0.45343132  0.87998332     0.03500
C3493       C  0.88608471  0.46991575  0.85801998    -0.05200
C3494       C  0.86804631  0.47659902  0.85915317    -0.23600
C3495       C  0.85050496  0.46708017  0.88381925     0.12800
C3496       C  0.85106928  0.45095174  0.90607519    -0.12700
N3497       N  0.90340024  0.44516293  0.87583495     0.64400
H3498       H  0.89942455  0.47657666  0.83906158     0.12300
N3499       N  0.83199757  0.47354521  0.88675788     0.61100
H3500       H  0.83748687  0.44365923  0.92473293     0.08500
O3501       O  0.81874668  0.38290661  0.51614678    -0.40400
O3502       O  0.85160810  0.41461004  0.53372787    -0.39600
O3503       O  0.90183055  0.47112591  0.96816109    -0.39600
O3504       O  0.92721635  0.46066675  0.94905353    -0.37300
O3505       O  0.81049261  0.45856189  0.87836922    -0.38200
O3506       O  0.83618777  0.49217221  0.90265062    -0.34300
O3507       O  0.89604986  0.42381998  0.86582715    -0.35700
O3508       O  0.92587288  0.46034297  0.87582966    -0.40000
C3509       C  0.93376869  0.25766369  0.91193281    -0.13700
C3510       C  0.92040780  0.24309026  0.93792795     0.16700
C3511       C  0.91456884  0.21851750  0.93831975     0.03000
C3512       C  0.92458885  0.20996477  0.91532584    -0.12200
C3513       C  0.94020723  0.22536768  0.89147278    -0.03300
C3514       C  0.94374488  0.24903944  0.88892001     0.02200
C3515       C  0.91392474  0.25426055  0.96493452     0.09000
N3516       N  0.90044646  0.20263869  0.96355960     0.65400
H3517       H  0.92213255  0.19191252  0.91810147     0.18300
N3518       N  0.95944453  0.26531241  0.86504917     0.75900
H3519       H  0.93753802  0.27625933  0.91039156     0.09800
C3520       C  0.93136591  0.27116513  0.49308673     0.03500
C3521       C  0.92338354  0.28329160  0.51371401    -0.05200
C3522       C  0.89864380  0.27608540  0.51620634    -0.23600
C3523       C  0.88279068  0.25734637  0.99561100     0.12800
C3524       C  0.88947024  0.24499942  0.97348032    -0.12700
N3525       N  0.95682597  0.27982826  0.49052544     0.64400
H3526       H  0.93675389  0.29948680  0.52615138     0.12300
N3527       N  0.85758643  0.24896047  0.00066133     0.61100
H3528       H  0.87541081  0.22915642  0.96137750     0.08500
O3529       O  0.98132561  0.28021603  0.87187884    -0.40400
O3530       O  0.95049250  0.26764616  0.83923789    -0.39600
O3531       O  0.87841527  0.18716123  0.95854941    -0.39600
O3532       O  0.91100867  0.20063140  0.98798993    -0.37300
O3533       O  0.84633335  0.25543746  0.98179697    -0.38200
O3534       O  0.84579639  0.23198546  0.02022102    -0.34300
O3535       O  0.97033020  0.29967565  0.47650929    -0.35700
O3536       O  0.96627778  0.26990678  0.50675761    -0.40000
C3537       C  0.12047915  0.21340647  0.72915189    -0.13700
C3538       C  0.09647211  0.19483998  0.72370445     0.16700
C3539       C  0.09183745  0.17745624  0.69980816     0.03000
C3540       C  0.11107515  0.17856974  0.68211916    -0.12200
C3541       C  0.13528223  0.19718397  0.68720921    -0.03300
C3542       C  0.13979934  0.21490178  0.71099378     0.02200
C3543       C  0.07669735  0.19251890  0.74493749     0.09000
N3544       N  0.06759941  0.15845334  0.69332967     0.65400
H3545       H  0.10684171  0.16492323  0.66381812     0.18300
N3546       N  0.16381562  0.23443395  0.71724124     0.75900
H3547       H  0.12424627  0.22674043  0.74775259     0.09800
C3548       C  0.07304107  0.18123901  0.77485580     0.03500
C3549       C  0.05446484  0.17918552  0.79487118    -0.05200
C3550       C  0.03910928  0.18840066  0.78590144    -0.23600
C3551       C  0.04317310  0.20011649  0.75588109     0.12800
C3552       C  0.06166748  0.20182533  0.73562423    -0.12700
N3553       N  0.08826318  0.17189473  0.78532012     0.64400
H3554       H  0.05218171  0.17027892  0.81766789     0.12300
N3555       N  0.02948927  0.21130649  0.74609157     0.61100
H3556       H  0.06460719  0.21085619  0.71279463     0.08500
O3557       O  0.17642438  0.23232257  0.73902619    -0.40400
O3558       O  0.17077753  0.25498432  0.70482663    -0.39600
O3559       O  0.05412854  0.16248988  0.67511565    -0.39600
O3560       O  0.06104837  0.13692215  0.70155914    -0.37300
O3561       O  0.03645935  0.23295092  0.75437399    -0.38200
O3562       O  0.01317010  0.20124119  0.72502213    -0.34300
O3563       O  0.10563381  0.18416194  0.80433375    -0.35700
O3564       O  0.08547246  0.15225595  0.77381402    -0.40000
C3565       C  0.09407350  0.22008361  0.96456239    -0.13700
C3566       C  0.09096277  0.19856406  0.97824490     0.16700
C3567       C  0.07040932  0.17620971  0.96984108     0.03000
C3568       C  0.05326982  0.17581912  0.94835818    -0.12200
C3569       C  0.05580989  0.19744162  0.93541879    -0.03300
C3570       C  0.07683559  0.21973770  0.94324727     0.02200
C3571       C  0.11503550  0.19898463  0.49722885     0.09000
N3572       N  0.07255316  0.15275453  0.48103402     0.65400
H3573       H  0.03724951  0.15850013  0.94307224     0.18300
N3574       N  0.08109374  0.24219223  0.92971140     0.75900
H3575       H  0.10995626  0.23731385  0.97065493     0.09800
C3576       C  0.12995348  0.18852805  0.49384131     0.03500
C3577       C  0.14372011  0.18835625  0.51992460    -0.05200
C3578       C  0.14326774  0.19898752  0.54920456    -0.23600
C3579       C  0.12887502  0.21008176  0.55217307     0.12800
C3580       C  0.11487785  0.20994039  0.52625889    -0.12700
N3581       N  0.12244177  0.17767895  0.96695657     0.64400
H3582       H  0.15509595  0.18021046  0.51715269     0.12300
N3583       N  0.12701825  0.22011069  0.58191890     0.61100
H3584       H  0.10317789  0.21771307  0.52912393     0.08500
O3585       O  0.09241030  0.24933985  0.90364733    -0.40400
O3586       O  0.07721882  0.25659503  0.94616659    -0.39600
O3587       O  0.06678247  0.14981544  0.51019471    -0.39600
O3588       O  0.06974613  0.13479333  0.46467916    -0.37300
O3589       O  0.13876937  0.24283593  0.58615308    -0.38200
O3590       O  0.11068662  0.20683505  0.60151522    -0.34300
O3591       O  0.13023053  0.19097643  0.94249176    -0.35700
O3592       O  0.11885721  0.15624565  0.96578238    -0.40000
C3593       C  0.89445605  0.07173036  0.52097650    -0.13700
C3594       C  0.89456590  0.09381829  0.51799538     0.16700
C3595       C  0.87480672  0.09554660  0.53016735     0.03000
C3596       C  0.85551887  0.07545888  0.54529917    -0.12200
C3597       C  0.85553597  0.05338916  0.54890380    -0.03300
C3598       C  0.87528526  0.05166670  0.53631566     0.02200
C3599       C  0.90956528  0.11721841  0.99494989     0.09000
N3600       N  0.87448764  0.11788158  0.52824352     0.65400
H3601       H  0.84090640  0.07746315  0.55528559     0.18300
N3602       N  0.87572717  0.02938633  0.53774035     0.75900
H3603       H  0.91138779  0.07910276  0.01992199     0.09800
C3604       C  0.93323983  0.13374780  0.00604983     0.03500
C3605       C  0.95108685  0.15012406  0.98474002    -0.05200
C3606       C  0.94591227  0.14993074  0.95203155    -0.23600
C3607       C  0.92196951  0.13372257  0.94120365     0.12800
C3608       C  0.90412355  0.11780959  0.96259977    -0.12700
N3609       N  0.93951578  0.13376605  0.03884499     0.64400
H3610       H  0.96929238  0.16220813  0.99352478     0.12300
N3611       N  0.91548211  0.13307713  0.90833267     0.61100
H3612       H  0.88610586  0.10522033  0.95363771     0.08500
O3613       O  0.89640344  0.04372050  0.07512191    -0.40400
O3614       O  0.86779994  0.01489651  0.51432772    -0.39600
O3615       O  0.86059844  0.11996637  0.50846215    -0.39600
O3616       O  0.88497924  0.13387792  0.54960494    -0.37300
O3617       O  0.91334191  0.11600026  0.89059717    -0.38200
O3618       O  0.90741504  0.14659001  0.89885392    -0.34300
O3619       O  0.95078846  0.12295371  0.04718766    -0.35700
O3620       O  0.94824969  0.13743689  0.56288207    -0.40000
C3621       C  0.89207251  0.10754298  0.77843640    -0.13700
C3622       C  0.89957478  0.09476065  0.75860039     0.16700
C3623       C  0.92330888  0.09849859  0.76154109     0.03000
C3624       C  0.93915100  0.11507117  0.78417013    -0.12200
C3625       C  0.93216791  0.12895722  0.80285592    -0.03300
C3626       C  0.90820446  0.12485837  0.80018859     0.02200
C3627       C  0.88279894  0.07867235  0.73372756     0.09000
N3628       N  0.93223559  0.08727787  0.73990988     0.65400
H3629       H  0.95762080  0.11837521  0.78547139     0.18300
N3630       N  0.89985182  0.13794711  0.81925947     0.75900
H3631       H  0.87377110  0.10460212  0.77624681     0.09800
C3632       C  0.87428739  0.05352581  0.73362908     0.03500
C3633       C  0.85957038  0.03920509  0.70852186    -0.05200
C3634       C  0.85255107  0.04939199  0.68371342    -0.23600
C3635       C  0.86065312  0.07460235  0.68443264     0.12800
C3636       C  0.87577928  0.08896518  0.70926771    -0.12700
N3637       N  0.87953003  0.04213971  0.75953705     0.64400
H3638       H  0.85307927  0.01984062  0.70898448     0.12300
N3639       N  0.85415541  0.08604908  0.65996402     0.61100
H3640       H  0.88233105  0.10835594  0.70929288     0.08500
O3641       O  0.88231887  0.12631045  0.83810041    -0.40400
O3642       O  0.90520530  0.15920606  0.81117516    -0.39600
O3643       O  0.93491175  0.09316773  0.71077873    -0.39600
O3644       O  0.94158446  0.07521481  0.75069948    -0.37300
O3645       O  0.83686612  0.09013044  0.66457642    -0.38200
O3646       O  0.86822735  0.09588422  0.63661948    -0.34300
O3647       O  0.86994688  0.04061311  0.78644483    -0.35700
O3648       O  0.88968972  0.02973336  0.75409539    -0.40000
C3649       C  0.02150049  0.44212807  0.64054148    -0.13700
C3650       C  0.00923123  0.41826439  0.62812991     0.16700
C3651       C  0.01557085  0.40131600  0.63964875     0.03000
C3652       C  0.03425561  0.40841255  0.66209329    -0.12200
C3653       C  0.04755751  0.43250818  0.67339709    -0.03300
C3654       C  0.04077572  0.44942916  0.66273402     0.02200
C3655       C  0.98942643  0.41055938  0.60380555     0.09000
N3656       N  0.00332638  0.37672924  0.62842021     0.65400
H3657       H  0.03907912  0.39506425  0.66980860     0.18300
N3658       N  0.05432316  0.47436767  0.67220057     0.75900
H3659       H  0.01677058  0.45534146  0.63201653     0.09800
C3660       C  0.96731075  0.40934340  0.61167236     0.03500
C3661       C  0.94699976  0.39656368  0.59176333    -0.05200
C3662       C  0.94813695  0.38470242  0.56390261    -0.23600
C3663       C  0.97089961  0.38841922  0.55397721     0.12800
C3664       C  0.99135153  0.40121026  0.57400881    -0.12700
N3665       N  0.96439467  0.41852473  0.64154040     0.64400
H3666       H  0.92961478  0.39389937  0.59974226     0.12300
N3667       N  0.97310253  0.37764746  0.52510931     0.61100
H3668       H  0.00841625  0.40255539  0.56722314     0.08500
O3669       O  0.04476769  0.48290183  0.69073135    -0.40400
O3670       O  0.07338180  0.48871416  0.65722477    -0.39600
O3671       O  0.01380444  0.36977160  0.60899205    -0.39600
O3672       O  0.98373002  0.36125706  0.64135667    -0.37300
O3673       O  0.98396065  0.36629398  0.01599215    -0.38200
O3674       O  0.97343060  0.35792883  0.52609853    -0.34300
O3675       O  0.96163498  0.43689720  0.64202543    -0.35700
O3676       O  0.96069424  0.40613289  0.66660862    -0.40000
C3677       C  0.05143075  0.30473011  0.78464470    -0.13700
C3678       C  0.07478085  0.32006226  0.79662703     0.16700
C3679       C  0.08141973  0.31405665  0.82613761     0.03000
C3680       C  0.06486450  0.29264872  0.84256385    -0.12200
C3681       C  0.04142831  0.27716423  0.83025310    -0.03300
C3682       C  0.03476608  0.28390633  0.80112271     0.02200
C3683       C  0.08952084  0.34409455  0.78050440     0.09000
N3684       N  0.10508589  0.32923328  0.83930625     0.65400
H3685       H  0.07054316  0.28789762  0.86452874     0.18300
N3686       N  0.01058906  0.27046568  0.78855384     0.75900
H3687       H  0.04555744  0.30966847  0.76297390     0.09800
C3688       C  0.09556523  0.34593848  0.74770227     0.03500
C3689       C  0.10247144  0.36769294  0.73081276    -0.05200
C3690       C  0.10305225  0.38776022  0.74598659    -0.23600
C3691       C  0.09849558  0.38621892  0.77954012     0.12800
C3692       C  0.09218063  0.36472759  0.79619989    -0.12700
N3693       N  0.09398791  0.32552883  0.73103185     0.64400
H3694       H  0.10613408  0.36840557  0.70548436     0.12300
N3695       N  0.09869291  0.40570764  0.79714141     0.61100
H3696       H  0.08722736  0.36354273  0.82114089     0.08500
O3697       O  0.00679486  0.25920824  0.76237725    -0.40400
O3698       O  0.99397302  0.27330694  0.80061030    -0.39600
O3699       O  0.10761268  0.34178397  0.86394514    -0.39600
O3700       O  0.12271655  0.32709605  0.82951938    -0.37300
O3701       O  0.07954683  0.40710668  0.79803736    -0.38200
O3702       O  0.11442619  0.41611973  0.81882128    -0.34300
O3703       O  0.07792298  0.31488186  0.70979701    -0.35700
O3704       O  0.11067702  0.32037286  0.73430289    -0.40000
C3705       C  0.20865408  0.48148430  0.83174851    -0.13700
C3706       C  0.20530255  0.45788765  0.83478982     0.16700
C3707       C  0.18530046  0.43853526  0.81877820     0.03000
C3708       C  0.16971869  0.44321491  0.79980482    -0.12200
C3709       C  0.17302224  0.46674051  0.79708248    -0.03300
C3710       C  0.19275242  0.48599745  0.81333875     0.02200
C3711       C  0.22247341  0.45413340  0.85569275     0.09000
N3712       N  0.18004456  0.41394327  0.82224305     0.65400
H3713       H  0.15510748  0.42836638  0.78668120     0.18300
N3714       N  0.19657872  0.51019090  0.81187552     0.75900
H3715       H  0.22372228  0.49657143  0.84393635     0.09800
C3716       C  0.23558229  0.44277775  0.84490574     0.03500
C3717       C  0.25155759  0.44004171  0.86590204    -0.05200
C3718       C  0.25610841  0.44986478  0.89695856    -0.23600
C3719       C  0.24323708  0.46157360  0.90736564     0.12800
C3720       C  0.22640278  0.46308193  0.88710038    -0.12700
N3721       N  0.23454346  0.43584811  0.81210679     0.64400
H3722       H  0.26171879  0.43167834  0.85714901     0.12300
N3723       N  0.24713286  0.47234373  0.93844844     0.61100
H3724       H  0.21665315  0.47189124  0.89585091     0.08500
O3725       O  0.21570554  0.52694388  0.79944998    -0.40400
O3726       O  0.18265148  0.51546789  0.82702366    -0.39600
O3727       O  0.17406839  0.40385138  0.84924398    -0.39600
O3728       O  0.17697232  0.40109647  0.79771376    -0.37300
O3729       O  0.26318357  0.49437603  0.94209084    -0.38200
O3730       O  0.23094176  0.46220161  0.95946412    -0.34300
O3731       O  0.24043117  0.45166224  0.79049826    -0.35700
O3732       O  0.23198825  0.41532812  0.80513513    -0.40000
C3733       C  0.23294110  0.44134805  0.55798731    -0.13700
C3734       C  0.24204204  0.46294688  0.57565011     0.16700
C3735       C  0.26551581  0.48219766  0.56959162     0.03000
C3736       C  0.27947239  0.47978423  0.54565750    -0.12200
C3737       C  0.27029194  0.45842126  0.52699725    -0.03300
C3738       C  0.24677205  0.43887837  0.53380673     0.02200
C3739       C  0.22605073  0.46557032  0.59876989     0.09000
N3740       N  0.27494692  0.50472240  0.58651526     0.65400
H3741       H  0.29740884  0.49509381  0.54122482     0.18300
N3742       N  0.22907942  0.41502189  0.01232041     0.75900
H3743       H  0.21476183  0.42648801  0.56260287     0.09800
C3744       C  0.20711483  0.46906109  0.58770027     0.03500
C3745       C  0.19049579  0.46909024  0.60929728    -0.05200
C3746       C  0.19255374  0.46598680  0.64212358    -0.23600
C3747       C  0.21199956  0.46330832  0.65351228     0.12800
C3748       C  0.22868292  0.46311508  0.63167983    -0.12700
N3749       N  0.20464526  0.47267381  0.55449545     0.64400
H3750       H  0.17589537  0.47167536  0.60035307     0.12300
N3751       N  0.21396185  0.45900799  0.68661384     0.61100
H3752       H  0.24316883  0.46022378  0.64022711     0.08500
O3753       O  0.21524637  0.41709352  0.99243188    -0.40400
O3754       O  0.22798145  0.39471497  0.01551882    -0.39600
O3755       O  0.29199903  0.51078195  0.60641563    -0.39600
O3756       O  0.26894914  0.52009530  0.57798832    -0.37300
O3757       O  0.20119931  0.43788003  0.69780821    -0.38200
O3758       O  0.23090518  0.47519666  0.70330878    -0.34300
O3759       O  0.18836749  0.45560800  0.53804958    -0.35700
O3760       O  0.21625927  0.49377812  0.54285283    -0.40000
C3761       C  0.14686703  0.58135528  0.54622961    -0.13700
C3762       C  0.12520351  0.56382688  0.56065650     0.16700
C3763       C  0.10421469  0.56593638  0.55684957     0.03000
C3764       C  0.10513987  0.58486437  0.53817266    -0.12200
C3765       C  0.12685820  0.60253503  0.52367023    -0.03300
C3766       C  0.14796926  0.60056101  0.52817697     0.02200
C3767       C  0.12593615  0.54521833  0.58199104     0.09000
N3768       N  0.08220790  0.54995120  0.57326817     0.65400
H3769       H  0.08870699  0.58591851  0.53551359     0.18300
N3770       N  0.17127446  0.62605462  0.03106860     0.75900
H3771       H  0.16329121  0.58033808  0.54945751     0.09800
C3772       C  0.11255514  0.51984769  0.57616606     0.03500
C3773       C  0.11531645  0.50359453  0.59657598    -0.05200
C3774       C  0.13134525  0.51210454  0.62294165    -0.23600
C3775       C  0.14388300  0.53758219  0.62915406     0.12800
C3776       C  0.14123024  0.55356475  0.60871034    -0.12700
N3777       N  0.09678784  0.51033824  0.54906591     0.64400
H3778       H  0.10518401  0.48428732  0.59139178     0.12300
N3779       N  0.15876650  0.54774315  0.65692024     0.61100
H3780       H  0.15119991  0.57288483  0.61398194     0.08500
O3781       O  0.18746655  0.62680318  0.01290242    -0.40400
O3782       O  0.17652691  0.64340913  0.05018163    -0.39600
O3783       O  0.08173907  0.55043536  0.60340336    -0.39600
O3784       O  0.06246445  0.53895830  0.55790267    -0.37300
O3785       O  0.18150229  0.55701341  0.65464952    -0.38200
O3786       O  0.14999911  0.55239971  0.68116357    -0.34300
O3787       O  0.10567389  0.51089972  0.52193600    -0.35700
O3788       O  0.07419231  0.49715131  0.55321189    -0.40000
C3789       C  0.11108238  0.55018233  0.79273652    -0.13700
C3790       C  0.13354993  0.57044375  0.80067264     0.16700
C3791       C  0.15495735  0.57291180  0.78709756     0.03000
C3792       C  0.15369896  0.55451101  0.76743086    -0.12200
C3793       C  0.13140220  0.53336250  0.76141106    -0.03300
C3794       C  0.10981751  0.53168460  0.77329142     0.02200
C3795       C  0.13441705  0.58638069  0.82699624     0.09000
N3796       N  0.17821689  0.59336837  0.79442864     0.65400
H3797       H  0.17045139  0.55617166  0.75846061     0.18300
N3798       N  0.08653512  0.51103362  0.76670577     0.75900
H3799       H  0.09453045  0.54790504  0.80331778     0.09800
C3800       C  0.11961005  0.59714664  0.82685044     0.03500
C3801       C  0.11822548  0.60903543  0.85420539    -0.05200
C3802       C  0.13182640  0.61079933  0.88145847    -0.23600
C3803       C  0.14687721  0.60041852  0.88161195     0.12800
C3804       C  0.14784918  0.58803840  0.85457253    -0.12700
N3805       N  0.10630311  0.59657408  0.79893175     0.64400
H3806       H  0.10706426  0.61749512  0.85390954     0.12300
N3807       N  0.16034002  0.60134038  0.90955018     0.61100
H3808       H  0.15844988  0.57897939  0.85553654     0.08500
O3809       O  0.07345330  0.51243211  0.74500518    -0.40400
O3810       O  0.07699047  0.49409212  0.78691376    -0.39600
O3811       O  0.19326222  0.59041451  0.81084052    -0.39600
O3812       O  0.18528282  0.61311249  0.77972080    -0.37300
O3813       O  0.18299187  0.61566943  0.91055587    -0.38200
O3814       O  0.15037243  0.58527880  0.93081380    -0.34300
O3815       O  0.08337442  0.58517542  0.79942315    -0.35700
O3816       O  0.11725784  0.61097377  0.77624023    -0.40000
loop_ 
_geom_bond_atom_site_label_1 
_geom_bond_atom_site_label_2 
_geom_bond_distance 
_geom_bond_site_symmetry_2 
_ccdc_geom_bond_type 
Fe1          O17   2.041       .  S
Fe1           O7   2.075       .  S
Fe1          O14   2.082       .  S
Fe1           O6   2.039       .  S
Fe1          O12   1.959       .  S
Fe2           O5   2.026       .  S
Fe2           O9   2.133       .  S
Fe2          O13   2.049       .  S
Fe2          O18   2.121       .  S
Fe2          O12   1.958       .  S
Fe3          O21   2.117       .  S
Fe3           O8   2.035       .  S
Fe3          O15   2.045       .  S
Fe3           O4   2.124       .  S
Fe3          O12   1.963       .  S
O4           C11   1.283       .  A
O5           C19   1.262       .  A
O6           C11   1.271       .  A
O7           C10   1.268       .  A
O8           C20   1.262       .  A
O9           C22   1.285       .  A
C10          O15   1.261       .  A
C10        C1885   1.487       .  S
C11        C1801   1.490       .  S
O13          C16   1.261       .  A
O14          C16   1.268       .  A
C16        C1838   1.478       .  S
O17          C22   1.269       .  A
O18          C20   1.278       .  A
C19          O21   1.279       .  A
C19        C1745   1.475       .  S
C20        C1782   1.485       .  S
C22        C1866   1.507       .  S
Fe23         O39   2.037       .  S
Fe23         O29   2.059       .  S
Fe23         O36   2.058   1_655  S
Fe23         O28   2.038   1_655  S
Fe23         O34   1.954       .  S
Fe24         O27   2.036   1_455  S
Fe24         O31   2.140   1_455  S
Fe24         O35   2.060       .  S
Fe24         O40   2.123       .  S
Fe24         O34   1.953   1_455  S
Fe25         O43   2.135       .  S
Fe25         O30   2.031   1_655  S
Fe25         O37   2.066       .  S
Fe25         O26   2.153   1_655  S
Fe25         O34   1.948       .  S
O26          C33   1.293       .  A
O27          C41   1.263       .  A
O28          C33   1.274       .  A
O29          C32   1.261       .  A
O30          C42   1.263       .  A
O31          C44   1.290       .  A
C32          O37   1.262       .  A
C32        C1717   1.485       .  S
C33        C1642   1.507       .  S
O35          C38   1.261       .  A
O36          C38   1.262       .  A
C38        C1661   1.484       .  S
O39          C44   1.272       .  A
O40          C42   1.280       .  A
C41          O43   1.283       .  A
C41        C1605   1.490       .  S
C42        C1773   1.492       .  S
C44        C1698   1.486       .  S
Fe45         O61   2.046       .  S
Fe45         O51   2.079       .  S
Fe45         O58   2.084       .  S
Fe45         O50   2.028       .  S
Fe45         O56   1.958       .  S
Fe46         O49   2.018       .  S
Fe46         O53   2.137       .  S
Fe46         O57   2.038       .  S
Fe46         O62   2.121       .  S
Fe46         O56   1.956       .  S
Fe47         O59   2.032       .  S
Fe47         O48   2.113       .  S
Fe47       O1973   2.113       .  S
Fe47       O1960   2.035       .  S
Fe47       O1964   1.975       .  S
O48          C55   1.283       .  A
O49          C63   1.259       .  A
O50        C1963   1.271   1_554  A
O51        C1962   1.266   1_554  A
O52       Fe1955   2.027       .  S
O52          C64   1.261   1_556  A
O53          C66   1.288       .  A
C54          O59   1.260       .  A
C54        O1959   1.261       .  A
C54        C1577   1.472       .  S
C55        O1958   1.275       .  A
C55        C1502   1.501       .  S
O56       Fe1955   1.961   1_554  S
O57          C60   1.259       .  A
O58          C60   1.267       .  A
C60        C1530   1.481       .  S
O61          C66   1.273       .  A
O62          C64   1.280       .  A
C63          O65   1.276       .  A
C63        C1754   1.472       .  S
C64        C1614   1.477       .  S
O65       Fe1955   2.112   1_554  S
C66        C1558   1.502       .  S
Fe67         O83   2.046       .  S
Fe67         O73   2.097       .  S
Fe67         O80   2.104       .  S
Fe67         O72   2.036       .  S
Fe67         O78   1.936       .  S
Fe68         O71   2.037       .  S
Fe68         O75   2.098       .  S
Fe68         O79   2.060       .  S
Fe68         O84   2.108       .  S
Fe68         O78   1.941       .  S
Fe69         O87   2.109       .  S
Fe69         O74   2.057       .  S
Fe69         O81   2.078       .  S
Fe69         O70   2.084       .  S
Fe69         O78   1.948       .  S
O70          C77   1.274       .  A
O71          C85   1.267       .  A
O72          C77   1.268       .  A
O73          C76   1.276       .  A
O74          C86   1.267       .  A
O75          C88   1.274       .  A
C76          O81   1.273       .  A
C76        C1549   1.503       .  S
C77        C1586   1.483       .  S
O79          C82   1.271       .  A
O80          C82   1.278       .  A
C82        C1446   1.500       .  S
O83          C88   1.266       .  A
O84          C86   1.275       .  A
C85          O87   1.278       .  A
C85        C1381   1.481       .  S
C86        C1465   1.486       .  S
C88        C1409   1.472       .  S
Fe89        O105   2.045       .  S
Fe89         O95   2.081       .  S
Fe89        O102   2.092       .  S
Fe89         O94   2.042       .  S
Fe89        O100   1.951       .  S
Fe90         O93   2.049       .  S
Fe90         O97   2.088       .  S
Fe90        O106   2.093       .  S
Fe90       O2009   2.070       .  S
Fe90        O100   1.949       .  S
Fe91        O109   2.107       .  S
Fe91         O96   2.053       .  S
Fe91        O103   2.077       .  S
Fe91         O92   2.101       .  S
Fe91        O100   1.959       .  S
O92          C99   1.278       .  A
O93         C107   1.267       .  A
O94          C99   1.271       .  A
O95          C98   1.271       .  A
O96        C2016   1.269       .  A
O97         C110   1.279       .  A
C98         O103   1.270       .  A
C98        C1353   1.500       .  S
C99        C3242   1.475       .  S
O101      Fe1998   2.083       .  S
O101        C104   1.271       .  A
O102       C2012   1.270       .  A
C104       O2010   1.268       .  A
C104       C1857   1.502   1_556  S
O105        C110   1.271       .  A
O106       C2016   1.276       .  A
C107        O109   1.277       .  A
C107       C1474   1.496       .  S
C108       O2004   1.271       .  A
C108       O2014   1.278       .  A
C108       C1297   1.490   1_556  S
C110       C1894   1.477       .  S
Fe111       O127   2.036   1_655  S
Fe111       O117   2.085       .  S
Fe111       O124   2.079   1_655  S
Fe111       O116   2.052       .  S
Fe111       O122   1.945       .  S
Fe112       O115   2.063       .  S
Fe112       O119   2.090       .  S
Fe112       O123   2.084       .  S
Fe112       O128   2.113       .  S
Fe112       O122   1.961   1_455  S
Fe113       O131   2.095       .  S
Fe113       O118   2.036       .  S
Fe113       O125   2.068       .  S
Fe113       O114   2.075       .  S
Fe113       O122   1.939       .  S
O114        C121   1.271       .  A
O115        C129   1.271       .  A
O116        C121   1.269       .  A
O117        C120   1.273       .  A
O118        C130   1.265       .  A
O119        C132   1.275       .  A
C120        O125   1.273       .  A
C120       C1213   1.491       .  S
C121       C1194   1.470       .  S
O123        C126   1.274       .  A
O124        C126   1.274       .  A
C126       C1269   1.498       .  S
O127        C132   1.266       .  A
O128        C130   1.276   1_455  A
C129        O131   1.274   1_455  A
C129       C1306   1.486       .  S
C130       C1390   1.483       .  S
C132       C1241   1.457       .  S
Fe133       O149   2.037       .  S
Fe133       O139   2.057       .  S
Fe133       O146   2.055       .  S
Fe133       O138   2.037       .  S
Fe133       O144   1.951       .  S
Fe134       O137   2.032       .  S
Fe134       O141   2.136       .  S
Fe134       O145   2.049       .  S
Fe134       O150   2.118       .  S
Fe134       O144   1.954       .  S
Fe135       O153   2.115       .  S
Fe135       O140   2.038       .  S
Fe135       O147   2.062       .  S
Fe135       O136   2.126       .  S
Fe135       O144   1.956       .  S
O136        C143   1.285       .  A
O137        C151   1.262       .  A
O138        C143   1.272       .  A
O139        C142   1.263       .  A
O140        C152   1.264       .  A
O141        C154   1.288       .  A
C142        O147   1.263       .  A
C142       C1101   1.481       .  S
C143       C1362   1.495       .  S
O145        C148   1.259       .  A
O146        C148   1.262       .  A
C148       C1325   1.480       .  S
O149        C154   1.272       .  A
O150        C152   1.280       .  A
C151        O153   1.278       .  A
C151       C1157   1.478       .  S
C152       C1138   1.481       .  S
C154       C1073   1.492       .  S
Fe155       O171   2.040       .  S
Fe155       O161   2.071       .  S
Fe155       O168   2.069   1_565  S
Fe155       O160   2.039   1_565  S
Fe155       O166   1.954       .  S
Fe156       O159   2.027   1_545  S
Fe156       O163   2.120   1_545  S
Fe156       O167   2.050       .  S
Fe156       O172   2.112       .  S
Fe156       O166   1.957   1_545  S
Fe157       O175   2.113       .  S
Fe157       O162   2.043   1_565  S
Fe157       O169   2.055       .  S
Fe157       O158   2.122   1_565  S
Fe157       O166   1.957       .  S
O158        C165   1.282       .  A
O159        C173   1.261       .  A
O160        C165   1.271       .  A
O161        C164   1.266       .  A
O162        C174   1.267       .  A
O163        C176   1.283       .  A
C164        O169   1.263       .  A
C164       C1250   1.471       .  S
C165       C1017   1.494       .  S
O167        C170   1.262       .  A
O168        C170   1.266       .  A
C170       C1054   1.483       .  S
O171        C176   1.271       .  A
O172        C174   1.279       .  A
C173        O175   1.275       .  A
C173       C1129   1.478       .  S
C174        C998   1.479       .  S
C176       C1278   1.492       .  S
Fe177       O193   2.039       .  S
Fe177       O183   2.076       .  S
Fe177       O190   2.089       .  S
Fe177      O2090   2.039       .  S
Fe177       O188   1.955       .  S
Fe178       O181   2.020       .  S
Fe178       O185   2.148       .  S
Fe178       O189   2.036       .  S
Fe178       O194   2.126       .  S
Fe178       O188   1.944       .  S
Fe179       O191   2.042       .  S
Fe179       O180   2.144       .  S
Fe179      O2105   2.125       .  S
Fe179      O2092   2.020       .  S
Fe179      O2096   1.940       .  S
O180        C187   1.292       .  A
O181        C195   1.259       .  A
O182      Fe2085   2.036       .  S
O182        C187   1.275       .  A
O183       C2094   1.264   1_554  A
O184      Fe2087   2.017       .  S
O184        C196   1.261   1_556  A
O185        C198   1.292       .  A
C186        O191   1.258       .  A
C186       O2091   1.263       .  A
C186        C914   1.479       .  S
C187        C942   1.500       .  S
O188      Fe2087   1.945   1_554  S
O189        C192   1.256       .  A
O190        C192   1.267       .  A
C192        C970   1.490       .  S
O193        C198   1.272       .  A
O194        C196   1.281       .  A
C195        O197   1.278       .  A
C195       C1166   1.478       .  S
C196        C989   1.485   1_554  S
O197      Fe2087   2.120   1_554  S
C198        C886   1.491       .  S
Fe199       O215   2.049   1_565  S
Fe199       O205   2.098       .  S
Fe199       O212   2.096   1_565  S
Fe199       O204   2.056       .  S
Fe199       O210   1.941       .  S
Fe200       O203   2.041       .  S
Fe200       O207   2.095       .  S
Fe200       O211   2.073       .  S
Fe200       O216   2.118       .  S
Fe200       O210   1.946   1_545  S
Fe201       O219   2.092       .  S
Fe201       O206   2.038       .  S
Fe201       O213   2.065       .  S
Fe201       O202   2.075       .  S
Fe201       O210   1.946       .  S
O202        C209   1.273       .  A
O203        C217   1.266   1_545  A
O204        C209   1.271       .  A
O205        C208   1.275       .  A
O206        C218   1.267       .  A
O207        C220   1.278       .  A
C208        O213   1.271       .  A
C208        C802   1.493       .  S
C209        C765   1.474       .  S
O211        C214   1.272       .  A
O212        C214   1.274       .  A
C214       C1689   1.505       .  S
O215        C220   1.270       .  A
O216        C218   1.279   1_545  A
C217        O219   1.273       .  A
C217        C821   1.486   1_565  S
C218        C849   1.491       .  S
C220       C1726   1.483       .  S
Fe221       O237   2.036       .  S
Fe221       O227   2.096       .  S
Fe221       O234   2.085       .  S
Fe221       O226   2.043       .  S
Fe221       O232   1.927       .  S
Fe222       O225   2.035       .  S
Fe222       O229   2.102       .  S
Fe222       O233   2.077       .  S
Fe222       O238   2.134       .  S
Fe222       O232   1.948       .  S
Fe223       O241   2.121       .  S
Fe223       O228   2.031       .  S
Fe223       O224   2.091       .  S
Fe223      O2143   2.064       .  S
Fe223       O232   1.937       .  S
O224        C231   1.274       .  A
O225        C239   1.266       .  A
O226        C231   1.267       .  A
O227       C2138   1.277       .  A
O228        C240   1.259       .  A
O229        C242   1.278       .  A
C230        O235   1.269   1_554  A
C230       O2135   1.268   1_554  A
C230       C1082   1.503       .  S
C231       C1110   1.475       .  S
O233        C236   1.275       .  A
O234        C236   1.273       .  A
O235      Fe2131   2.080       .  S
C236        C746   1.491       .  S
O237        C242   1.270       .  A
O238        C240   1.280       .  A
C239        O241   1.278       .  A
C239       C2766   1.483       .  S
C240        C681   1.490       .  S
C242       C2626   1.480       .  S
Fe243       O259   2.047       .  S
Fe243       O249   2.094       .  S
Fe243       O256   2.111       .  S
Fe243       O248   2.042       .  S
Fe243       O254   1.930       .  S
Fe244       O247   2.032       .  S
Fe244       O251   2.082       .  S
Fe244       O255   2.071       .  S
Fe244       O260   2.124       .  S
Fe244       O254   1.933       .  S
Fe245       O263   2.129       .  S
Fe245       O250   2.041       .  S
Fe245       O257   2.073       .  S
Fe245       O246   2.109       .  S
Fe245       O254   1.947       .  S
O246        C253   1.281       .  A
O247        C261   1.260       .  A
O248        C253   1.271       .  A
O249        C252   1.275       .  A
O250        C262   1.267       .  A
O251        C264   1.273       .  A
C252        O257   1.271       .  A
C252       C1493   1.496       .  S
C253       C1521   1.480       .  S
O255        C258   1.275       .  A
O256        C258   1.279       .  A
C258        C877   1.502       .  S
O259        C264   1.267       .  A
O260        C262   1.280       .  A
C261        O263   1.277       .  A
C261        C690   1.487       .  S
C262        C830   1.484       .  S
C264        C905   1.477       .  S
Fe265       O281   2.047       .  S
Fe265       O271   2.096       .  S
Fe265       O278   2.105       .  S
Fe265       O270   2.046       .  S
Fe265       O276   1.936       .  S
Fe266       O269   2.041       .  S
Fe266       O273   2.093       .  S
Fe266       O277   2.074       .  S
Fe266       O282   2.110       .  S
Fe266       O276   1.938       .  S
Fe267       O285   2.117       .  S
Fe267       O272   2.054       .  S
Fe267       O279   2.078       .  S
Fe267       O268   2.100       .  S
Fe267       O276   1.951       .  S
O268        C275   1.277       .  A
O269        C283   1.265       .  A
O270        C275   1.268       .  A
O271        C274   1.276       .  A
O272        C284   1.270       .  A
O273        C286   1.277       .  A
C274        O279   1.273       .  A
C274        C933   1.505       .  S
C275        C961   1.466       .  S
O277        C280   1.272       .  A
O278        C280   1.277       .  A
C280        C606   1.509       .  S
O281        C286   1.268       .  A
O282        C284   1.279       .  A
C283        O285   1.277       .  A
C283        C662   1.485       .  S
C284        C634   1.487       .  S
C286        C569   1.477       .  S
Fe287       O303   2.053       .  S
Fe287       O293   2.085       .  S
Fe287       O300   2.078       .  S
Fe287       O292   2.048       .  S
Fe287       O298   1.958       .  S
Fe288       O291   2.059       .  S
Fe288       O295   2.084       .  S
Fe288       O299   2.082       .  S
Fe288       O304   2.091       .  S
Fe288       O298   1.961       .  S
Fe289       O307   2.102       .  S
Fe289       O294   2.052       .  S
Fe289       O301   2.077       .  S
Fe289       O290   2.097       .  S
Fe289       O298   1.963       .  S
O290        C297   1.277       .  A
O291        C305   1.269       .  A
O292        C297   1.270       .  A
O293        C296   1.272       .  A
O294        C306   1.269       .  A
O295        C308   1.276       .  A
C296        O301   1.270       .  A
C296       C1633   1.504       .  S
C297       C1670   1.479       .  S
O299        C302   1.270       .  A
O300        C302   1.270       .  A
C302       C1026   1.505       .  S
O303        C308   1.272       .  A
O304        C306   1.275       .  A
C305        O307   1.276       .  A
C305        C625   1.491       .  S
C306        C550   1.490       .  S
C308       C1045   1.477       .  S
Fe309       O325   2.050       .  S
Fe309       O315   2.078       .  S
Fe309       O322   2.096       .  S
Fe309       O314   2.038       .  S
Fe309       O320   1.928       .  S
Fe310       O313   2.032       .  S
Fe310       O317   2.091       .  S
Fe310       O326   2.107       .  S
Fe310      O2229   2.069       .  S
Fe310       O320   1.936       .  S
Fe311       O329   2.131       .  S
Fe311       O316   2.051       .  S
Fe311       O323   2.084       .  S
Fe311       O312   2.103       .  S
Fe311       O320   1.947       .  S
O312        C319   1.280       .  A
O313        C327   1.263       .  A
O314        C319   1.270       .  A
O315        C318   1.272       .  A
O316        C328   1.266       .  A
O317        C330   1.275       .  A
C318        O323   1.274       .  A
C318       C1810   1.498       .  S
C319       C3737   1.489       .  S
O321      Fe2218   2.061       .  S
O321        C324   1.269   1_556  A
O322       C2232   1.276       .  A
C324       O2230   1.273   1_554  A
C324        C513   1.492       .  S
O325        C330   1.267       .  A
O326        C328   1.276       .  A
C327        O329   1.282       .  A
C327        C653   1.486       .  S
C328       C2449   1.484       .  S
C330        C494   1.473       .  S
Fe331       O347   2.037       .  S
Fe331       O337   2.074       .  S
Fe331       O344   2.077       .  S
Fe331       O336   2.036       .  S
Fe331       O342   1.952       .  S
Fe332       O335   2.025       .  S
Fe332       O339   2.132       .  S
Fe332       O343   2.047       .  S
Fe332       O348   2.110       .  S
Fe332       O342   1.945       .  S
Fe333       O351   2.113       .  S
Fe333       O338   2.034       .  S
Fe333       O345   2.047       .  S
Fe333       O334   2.125       .  S
Fe333       O342   1.944       .  S
O334        C341   1.286       .  A
O335        C349   1.261       .  A
O336        C341   1.275       .  A
O337        C340   1.264       .  A
O338        C350   1.264       .  A
O339        C352   1.289       .  A
C340        O345   1.260       .  A
C340        C709   1.477       .  S
C341        C522   1.488       .  S
O343        C346   1.259       .  A
O344        C346   1.264       .  A
C346        C485   1.480       .  S
O347        C352   1.273       .  A
O348        C350   1.278       .  A
C349        O351   1.278       .  A
C349        C429   1.475       .  S
C350        C466   1.477       .  S
C352        C737   1.491       .  S
Fe353       O369   2.045       .  S
Fe353       O359   2.062       .  S
Fe353       O366   2.056       .  S
Fe353       O358   2.049       .  S
Fe353       O364   1.950       .  S
Fe354       O357   2.041       .  S
Fe354       O370   2.107   1_556  S
Fe354      O2269   2.120       .  S
Fe354      O2273   2.056       .  S
Fe354       O364   1.957   1_556  S
Fe355       O373   2.120       .  S
Fe355       O360   2.029       .  S
Fe355       O367   2.057       .  S
Fe355       O356   2.146       .  S
Fe355       O364   1.953       .  S
O356        C363   1.290       .  A
O357        C371   1.265   1_556  A
O358        C363   1.275       .  A
O359        C362   1.263       .  A
O360        C372   1.262       .  A
O361      Fe2262   2.138       .  S
O361        C374   1.288       .  A
C362        O367   1.261       .  A
C362       C1418   1.477       .  S
C363        C597   1.505       .  S
O365      Fe2262   2.051       .  S
O365        C368   1.262       .  A
O366       C2276   1.261   1_554  A
C368       O2274   1.263       .  A
C368        C578   1.484       .  S
O369       C2282   1.275   1_554  A
O370        C372   1.276       .  A
C371        O373   1.280       .  A
C371        C401   1.483       .  S
C372        C457   1.472       .  S
C374       O2277   1.271       .  A
C374       C1437   1.494       .  S
Fe375       O391   2.041       .  S
Fe375       O381   2.070       .  S
Fe375       O388   2.081       .  S
Fe375       O380   2.042       .  S
Fe375       O386   1.956       .  S
Fe376       O379   2.022       .  S
Fe376       O383   2.138       .  S
Fe376       O387   2.037       .  S
Fe376       O392   2.123       .  S
Fe376       O386   1.946       .  S
Fe377       O395   2.132       .  S
Fe377       O382   2.025       .  S
Fe377       O389   2.049       .  S
Fe377       O378   2.133       .  S
Fe377       O386   1.952       .  S
O378        C385   1.288       .  A
O379        C393   1.260       .  A
O380        C385   1.272       .  A
O381        C384   1.266       .  A
O382        C394   1.261       .  A
O383        C396   1.289       .  A
C384        O389   1.261       .  A
C384       C1185   1.481       .  S
C385        C793   1.499       .  S
O387        C390   1.259       .  A
O388        C390   1.265       .  A
C390        C774   1.486       .  S
O391        C396   1.272       .  A
O392        C394   1.280       .  A
C393        O395   1.282       .  A
C393        C410   1.484       .  S
C394        C438   1.482       .  S
C396       C1222   1.500       .  S
C397        C398   1.404       .  A
C397        C402   1.408       .  A
C397        H407   1.083       .  S
C398        C403   1.501       .  S
C398        C399   1.415       .  A
C399       C2308   1.408       .  A
C399        N404   1.429       .  S
C400        C401   1.404       .  A
C400       C2307   1.408   1_554  A
C400        H405   1.081       .  S
C401       C2310   1.413   1_554  A
C402       C2309   1.414       .  A
C402        N406   1.428       .  S
C403        C408   1.411       .  A
C403        C412   1.408       .  A
N404        O420   1.262       .  A
N404       O2327   1.262       .  A
N406        O417   1.262       .  A
N406       O2326   1.261       .  A
C408        C409   1.406       .  A
C408        N413   1.429       .  S
C409        C410   1.407       .  A
C409        H414   1.084       .  S
C410        C411   1.409       .  A
C411        C412   1.409       .  A
C411        N415   1.428       .  S
C412        H416   1.083       .  S
N413        O423   1.262       .  A
N413       O2332   1.262       .  A
N415        O421   1.262       .  A
N415        O422   1.262       .  A
O418       N2314   1.261       .  A
O419       N2312   1.262       .  A
O424       N2321   1.262       .  A
C425        C426   1.405       .  A
C425        C430   1.401       .  A
C425        H435   1.082       .  S
C426        C431   1.497       .  S
C426        C427   1.416       .  A
C427        C428   1.408       .  A
C427        N432   1.429       .  S
C428        C429   1.403       .  A
C428        H433   1.083       .  S
C429        C430   1.410       .  A
C430        N434   1.430       .  S
C431        C436   1.417       .  A
C431        C440   1.401       .  A
N432        O447   1.262       .  A
N432        O448   1.262       .  A
N434        O445   1.262       .  A
N434        O446   1.262       .  A
C436        C437   1.408       .  A
C436        N441   1.429       .  S
C437        C438   1.401       .  A
C437        H442   1.081       .  S
C438        C439   1.415       .  A
C439        C440   1.402       .  A
C439        N443   1.429       .  S
C440        H444   1.082       .  S
N441        O451   1.262       .  A
N441        O452   1.261       .  A
N443        O449   1.261       .  A
N443        O450   1.262       .  A
C453        C454   1.404       .  A
C453        C458   1.401       .  A
C453        H463   1.083       .  S
C454        C459   1.490       .  S
C454        C455   1.412       .  A
C455        C456   1.406       .  A
C455        N460   1.428       .  S
C456        C457   1.403       .  A
C456        H461   1.084       .  S
C457        C458   1.409       .  A
C458        N462   1.429       .  S
C459        C464   1.414       .  A
C459        C468   1.401       .  A
N460        O475   1.262       .  A
N460        O476   1.262       .  A
N462        O473   1.262       .  A
N462        O474   1.262       .  A
C464        C465   1.405       .  A
C464        N469   1.429       .  S
C465        C466   1.401       .  A
C465        H470   1.083       .  S
C466        C467   1.414       .  A
C467        C468   1.402       .  A
C467        N471   1.429       .  S
C468        H472   1.083       .  S
N469        O479   1.262       .  A
N469        O480   1.262       .  A
N471        O477   1.261       .  A
N471        O478   1.262       .  A
C481        C482   1.399       .  A
C481        C486   1.399       .  A
C481        H491   1.083       .  S
C482        C487   1.473       .  S
C482        C483   1.406       .  A
C483        C484   1.400       .  A
C483        N488   1.429       .  S
C484        C485   1.407       .  A
C484        H489   1.083       .  S
C485        C486   1.414       .  A
C486        N490   1.429       .  S
C487        C492   1.407       .  A
C487        C496   1.401       .  A
N488        O503   1.262       .  A
N488        O504   1.262       .  A
N490        O501   1.262       .  A
N490        O502   1.262       .  A
C492        C493   1.398       .  A
C492        N497   1.428       .  S
C493        C494   1.402       .  A
C493        H498   1.083       .  S
C494        C495   1.412       .  A
C495        C496   1.401       .  A
C495        N499   1.429       .  S
C496        H500   1.083       .  S
N497        O507   1.262       .  A
N497        O508   1.261       .  A
N499        O505   1.262       .  A
N499        O506   1.262       .  A
C509        C510   1.404       .  A
C509        C514   1.404       .  A
C509        H519   1.084       .  S
C510        C515   1.482       .  S
C510        C511   1.405       .  A
C511        C512   1.398       .  A
C511        N516   1.429       .  S
C512        C513   1.409       .  A
C512        H517   1.083       .  S
C513        C514   1.417       .  A
C514       N2426   1.429       .  S
C515        C520   1.405       .  A
C515        C524   1.405       .  A
N516        O531   1.262       .  A
N516        O532   1.262       .  A
N518       C2422   1.428       .  S
N518        O529   1.262       .  A
N518        O530   1.262       .  A
C520        C521   1.395       .  A
C520        N525   1.430       .  S
C521        C522   1.408       .  A
C521        H526   1.084       .  S
C522        C523   1.414       .  A
C523        C524   1.407       .  A
C523        N527   1.429       .  S
C524        H528   1.083       .  S
N525        O535   1.262       .  A
N525        O536   1.262       .  A
N527        O533   1.262       .  A
N527        O534   1.261       .  A
C537        C538   1.405       .  A
C537        C542   1.398       .  A
C537        H547   1.084       .  S
C538        C543   1.485       .  S
C538        C539   1.410       .  A
C539        C540   1.405   1_554  A
C539        N544   1.429   1_554  S
C540        C541   1.408   1_556  A
C540        H545   1.083       .  S
C541       C2236   1.479   1_554  S
C541        C542   1.407       .  A
C542        N546   1.429       .  S
C543        C548   1.409       .  A
C543        C552   1.401       .  A
N544        O559   1.262       .  A
N544        O560   1.262       .  A
N546        O557   1.262       .  A
N546        O558   1.262       .  A
C548        C549   1.408       .  A
C548       N2461   1.428       .  S
C549        C550   1.411       .  A
C549        H554   1.083       .  S
C550        C551   1.415       .  A
C551        C552   1.395       .  A
C551        N555   1.430       .  S
C552        H556   1.084       .  S
N553       C2456   1.428       .  S
N553        O563   1.262       .  A
N553        O564   1.262       .  A
N555        O561   1.262       .  A
N555        O562   1.261       .  A
C565        C566   1.401       .  A
C565        C570   1.400       .  A
C565        H575   1.083       .  S
C566        C571   1.479       .  S
C566        C567   1.410       .  A
C567        C568   1.399       .  A
C567        N572   1.431       .  S
C568        C569   1.403       .  A
C568        H573   1.083       .  S
C569        C570   1.414       .  A
C570        N574   1.429       .  S
C571        C576   1.409       .  A
C571        C580   1.400       .  A
N572        O587   1.262       .  A
N572        O588   1.262       .  A
N574        O585   1.262       .  A
N574        O586   1.262       .  A
C576        C577   1.400       .  A
C576        N581   1.430       .  S
C577        C578   1.405       .  A
C577       H2490   1.083       .  S
C578        C579   1.417       .  A
C579        C580   1.400       .  A
C579        N583   1.429       .  S
C580        H584   1.083       .  S
N581        O592   1.262       .  A
N581       O2499   1.262       .  A
H582       C2485   1.083       .  S
N583        O589   1.262       .  A
N583        O590   1.262       .  A
O591       N2489   1.262       .  A
C593        C594   1.410       .  A
C593        C598   1.415       .  A
C593        H603   1.082       .  S
C594        C599   1.503       .  S
C594        C595   1.409       .  A
C595        C596   1.404       .  A
C595        N600   1.429       .  S
C596        C597   1.411       .  A
C596        H601   1.083       .  S
C597        C598   1.415       .  A
C598        N602   1.428       .  S
C599        C604   1.410       .  A
C599        C608   1.406       .  A
N600        O615   1.262       .  A
N600        O616   1.262       .  A
N602        O613   1.262       .  A
N602        O614   1.262       .  A
C604        C605   1.408       .  A
C604        N609   1.429       .  S
C605        C606   1.412       .  A
C605        H610   1.082       .  S
C606        C607   1.419       .  A
C607        C608   1.410       .  A
C607        N611   1.429       .  S
C608        H612   1.082       .  S
N609        O619   1.262       .  A
N609        O620   1.262       .  A
N611        O617   1.262       .  A
N611        O618   1.262       .  A
C621        C622   1.401       .  A
C621        C626   1.400       .  A
C621        H631   1.084       .  S
C622        C627   1.489       .  S
C622        C623   1.410       .  A
C623        C624   1.410       .  A
C623        N628   1.428       .  S
C624        C625   1.409       .  A
C624        H629   1.084       .  S
C625        C626   1.414       .  A
C626        N630   1.429       .  S
C627        C632   1.410       .  A
C627        C636   1.404       .  A
N628        O643   1.262       .  A
N628        O644   1.262       .  A
N630        O641   1.262       .  A
N630        O642   1.262       .  A
C632        C633   1.408       .  A
C632        N637   1.428       .  S
C633        C634   1.408       .  A
C633        H638   1.083       .  S
C634        C635   1.412       .  A
C635        C636   1.401       .  A
C635        N639   1.429       .  S
C636        H640   1.083       .  S
N637        O647   1.262       .  A
N637        O648   1.262       .  A
N639        O645   1.262       .  A
N639        O646   1.262       .  A
C649        C650   1.397       .  A
C649        C654   1.394       .  A
C649        H659   1.084       .  S
C650        C655   1.484       .  S
C650        C651   1.410       .  A
C651        C652   1.412       .  A
C651        N656   1.427       .  S
C652        C653   1.406       .  A
C652        H657   1.082       .  S
C653        C654   1.420       .  A
C654        N658   1.433       .  S
C655        C660   1.406       .  A
C655        C664   1.408       .  A
N656        O671   1.261       .  A
N656        O672   1.262       .  A
N658        O669   1.262       .  A
N658        O670   1.262       .  A
C660        C661   1.393       .  A
C660        N665   1.430       .  S
C661        C662   1.405       .  A
C661        H666   1.084       .  S
C662        C663   1.412       .  A
C663        C664   1.413       .  A
C663        N667   1.428       .  S
C664        H668   1.083       .  S
N665        O675   1.262       .  A
N665        O676   1.262       .  A
N667        O673   1.262       .  A
N667        O674   1.262       .  A
C677        C678   1.398       .  A
C677        C682   1.391       .  A
C677        H687   1.084       .  S
C678        C683   1.490   1_565  S
C678        C679   1.413       .  A
C679        C680   1.414       .  A
C679        N684   1.428       .  S
C680        C681   1.409       .  A
C680        H685   1.083       .  S
C681        C682   1.421       .  A
C682        N686   1.432       .  S
C683        C688   1.408       .  A
C683        C692   1.411       .  A
N684        O699   1.262       .  A
N684        O700   1.262       .  A
N686        O697   1.261       .  A
N686        O698   1.262       .  A
C688        C689   1.389       .  A
C688        N693   1.432   1_545  S
C689        C690   1.406       .  A
C689        H694   1.083       .  S
C690        C691   1.411       .  A
C691        C692   1.415       .  A
C691        N695   1.428       .  S
C692        H696   1.082       .  S
N693        O703   1.262       .  A
N693        O704   1.262       .  A
N695        O701   1.262       .  A
N695        O702   1.261       .  A
C705        C706   1.400       .  A
C705        C710   1.397       .  A
C705        H715   1.084       .  S
C706        C711   1.475       .  S
C706        C707   1.407       .  A
C707        C708   1.399       .  A
C707        N712   1.429       .  S
C708        C709   1.405       .  A
C708        H713   1.084       .  S
C709        C710   1.413       .  A
C710        N714   1.429       .  S
C711        C716   1.410       .  A
C711        C720   1.400       .  A
N712        O727   1.262       .  A
N712        O728   1.262       .  A
N714        O725   1.262       .  A
N714        O726   1.262       .  A
C716        C717   1.399       .  A
C716        N721   1.430       .  S
C717        C718   1.404       .  A
C717       H2630   1.083       .  S
C718       C2150   1.478       .  S
C718        C719   1.414       .  A
C719        C720   1.398       .  A
C719        N723   1.430       .  S
C720        H724   1.083       .  S
N721        O731   1.262       .  A
N721        O732   1.262       .  A
H722       C2625   1.083       .  S
N723        O729   1.262       .  A
N723        O730   1.262       .  A
C733        C734   1.398       .  A
C733        C738   1.399       .  A
C733        H743   1.084       .  S
C734        C739   1.486       .  S
C734        C735   1.411       .  A
C735        C736   1.409       .  A
C735        N740   1.428       .  S
C736        C737   1.406       .  A
C736        H741   1.083       .  S
C737        C738   1.418       .  A
C738        N742   1.430       .  S
C739        C744   1.409       .  A
C739        C748   1.401       .  A
N740        O755   1.262       .  A
N740        O756   1.262       .  A
N742        O753   1.262       .  A
N742        O754   1.262       .  A
C744        C745   1.408       .  A
C744        N749   1.429       .  S
C745        C746   1.408       .  A
C745        H750   1.083       .  S
C746        C747   1.414       .  A
C747        C748   1.402       .  A
C747        N751   1.429       .  S
C748        H752   1.083       .  S
N749        O759   1.261       .  A
N749        O760   1.262       .  A
N751        O757   1.262       .  A
N751        O758   1.262       .  A
C761        C762   1.400       .  A
C761        C766   1.397   1_556  A
C761       H2679   1.083       .  S
C762       C2675   1.472       .  S
C762        C763   1.409   1_556  A
C763        C764   1.397       .  A
C763        N768   1.431       .  S
C764        C765   1.404       .  A
C764        H769   1.083       .  S
C765        C766   1.410       .  A
C766        N770   1.429       .  S
C767       C2670   1.473       .  S
C767        C772   1.404       .  A
C767        C776   1.401       .  A
N768        O783   1.262       .  A
N768        O784   1.262       .  A
N770        O782   1.262   1_554  A
N770       O2689   1.261       .  A
H771       C2669   1.083       .  S
C772        C773   1.395       .  A
C772        N777   1.429       .  S
C773        C774   1.409       .  A
C773        H778   1.082       .  S
C774        C775   1.416       .  A
C775        C776   1.402       .  A
C775        N779   1.429       .  S
C776       H2688   1.083       .  S
N777        O787   1.262       .  A
N777        O788   1.262       .  A
N779        O785   1.262       .  A
N779        O786   1.262       .  A
H780       C2684   1.083       .  S
O781       N2678   1.261       .  A
C789        C790   1.399       .  A
C789        C794   1.400       .  A
C789        H799   1.084       .  S
C790        C795   1.491       .  S
C790        C791   1.412       .  A
C791        C792   1.410       .  A
C791        N796   1.428       .  S
C792        C793   1.408       .  A
C792        H797   1.083       .  S
C793        C794   1.421       .  A
C794        N798   1.430       .  S
C795        C800   1.411       .  A
C795        C804   1.403       .  A
N796        O811   1.262       .  A
N796        O812   1.262       .  A
N798        O809   1.262       .  A
N798        O810   1.262       .  A
C800        C801   1.408       .  A
C800        N805   1.429       .  S
C801        C802   1.408       .  A
C801        H806   1.084       .  S
C802        C803   1.413       .  A
C803        C804   1.403       .  A
C803        N807   1.428       .  S
C804        H808   1.085       .  S
N805        O815   1.262       .  A
N805        O816   1.262       .  A
N807        O813   1.261       .  A
N807        O814   1.262       .  A
C817        C818   1.402       .  A
C817        C822   1.406   1_545  A
C817        H827   1.083   1_545  S
C818        C823   1.480       .  S
C818        C819   1.408       .  A
C819        C820   1.396       .  A
C819        N824   1.430       .  S
C820        C821   1.406       .  A
C820        H825   1.084       .  S
C821        C822   1.416   1_545  A
C822        N826   1.430       .  S
C823        C828   1.410       .  A
C823        C832   1.395       .  A
N824        O839   1.262       .  A
N824        O840   1.262       .  A
N826        O837   1.261       .  A
N826        O838   1.262       .  A
C828        C829   1.402       .  A
C828        N833   1.429       .  S
C829        C830   1.405       .  A
C829        H834   1.083       .  S
C830        C831   1.415       .  A
C831        C832   1.402       .  A
C831        N835   1.425       .  S
C832        H836   1.084       .  S
N833        O843   1.261       .  A
N833        O844   1.262       .  A
N835        O841   1.261       .  A
N835        O842   1.262       .  A
C845        C846   1.404       .  A
C845        C850   1.410   1_565  A
C845        H855   1.083       .  S
C846        C851   1.488       .  S
C846        C847   1.409       .  A
C847        C848   1.398       .  A
C847        N852   1.431       .  S
C848        C849   1.406       .  A
C848        H853   1.084       .  S
C849        C850   1.415   1_565  A
C850        N854   1.427       .  S
C851        C856   1.412       .  A
C851        C860   1.403       .  A
N852        O867   1.262   1_554  A
N852        O868   1.262       .  A
N854        O865   1.260       .  A
N854        O866   1.262       .  A
C856        C857   1.400       .  A
C856        N861   1.430       .  S
C857        C858   1.403       .  A
C857        H862   1.084       .  S
C858       C2147   1.482   1_554  S
C858       C2767   1.413       .  A
C859       C2766   1.415       .  A
C859       C2768   1.402       .  A
C859        N863   1.426       .  S
C860       C2767   1.407       .  A
C860       H2772   1.083       .  S
N861        O871   1.262       .  A
N861        O872   1.262       .  A
N863        O869   1.262       .  A
N863        O870   1.261       .  A
H864       C2768   1.084       .  S
C873        C874   1.404       .  A
C873        C878   1.409       .  A
C873        H883   1.084       .  S
C874        C879   1.496       .  S
C874        C875   1.409       .  A
C875        C876   1.408       .  A
C875        N880   1.429       .  S
C876        C877   1.410       .  A
C876        H881   1.083       .  S
C877        C878   1.417       .  A
C878        N882   1.429       .  S
C879        C884   1.413       .  A
C879        C888   1.401       .  A
N880        O895   1.262       .  A
N880        O896   1.262       .  A
N882        O893   1.262       .  A
N882        O894   1.262       .  A
C884        C885   1.411       .  A
C884        N889   1.427       .  S
C885        C886   1.404       .  A
C885        H890   1.083       .  S
C886        C887   1.418       .  A
C887        C888   1.405       .  A
C887        N891   1.431       .  S
C888        H892   1.083       .  S
N889        O899   1.262       .  A
N889        O900   1.261       .  A
N891        O897   1.262       .  A
N891        O898   1.261       .  A
C901        C902   1.399       .  A
C901        C906   1.398       .  A
C901        H911   1.084       .  S
C902        C907   1.474       .  S
C902        C903   1.410       .  A
C903        C904   1.398       .  A
C903        N908   1.430       .  S
C904        C905   1.404       .  A
C904        H909   1.083       .  S
C905        C906   1.414       .  A
C906        N910   1.429       .  S
C907        C912   1.407       .  A
C907        C916   1.400       .  A
N908        O923   1.262       .  A
N908        O924   1.262       .  A
N910        O921   1.261       .  A
N910        O922   1.262       .  A
C912        C913   1.399       .  A
C912        N917   1.430       .  S
C913        C914   1.406       .  A
C913        H918   1.083       .  S
C914        C915   1.413       .  A
C915        C916   1.398       .  A
C915        N919   1.429       .  S
C916        H920   1.083       .  S
N917        O927   1.262       .  A
N917        O928   1.262       .  A
N919        O925   1.262       .  A
N919        O926   1.262       .  A
C929        C930   1.404       .  A
C929        C934   1.410       .  A
C929        H939   1.084       .  S
C930        C935   1.492       .  S
C930        C931   1.406       .  A
C931        C932   1.403       .  A
C931        N936   1.430       .  S
C932        C933   1.412       .  A
C932        H937   1.083       .  S
C933        C934   1.420       .  A
C934        N938   1.429       .  S
C935        C940   1.405       .  A
C935        C944   1.407       .  A
N936        O951   1.261       .  A
N936        O952   1.262       .  A
N938        O949   1.262       .  A
N938        O950   1.262       .  A
C940        C941   1.401       .  A
C940        N945   1.429       .  S
C941        C942   1.412       .  A
C941        H946   1.084       .  S
C942        C943   1.414       .  A
C943        C944   1.410       .  A
C943        N947   1.428       .  S
C944        H948   1.084       .  S
N945        O955   1.262       .  A
N945        O956   1.262       .  A
N947        O953   1.262       .  A
N947        O954   1.262       .  A
C957        C958   1.403       .  A
C957        C962   1.399       .  A
C957        H967   1.084       .  S
C958        C963   1.477       .  S
C958        C959   1.409       .  A
C959        C960   1.402       .  A
C959        N964   1.429       .  S
C960        C961   1.401       .  A
C960        H965   1.084       .  S
C961        C962   1.406       .  A
C962        N966   1.429       .  S
C963        C968   1.408       .  A
C963        C972   1.396       .  A
N964        O979   1.262       .  A
N964        O980   1.262       .  A
N966        O977   1.262       .  A
N966        O978   1.262       .  A
C968        C969   1.404       .  A
C968        N973   1.429       .  S
C969        C970   1.408       .  A
C969        H974   1.083       .  S
C970        C971   1.420       .  A
C971        C972   1.397       .  A
C971        N975   1.429       .  S
C972        H976   1.084       .  S
N973        O983   1.262       .  A
N973        O984   1.262       .  A
N975        O981   1.262       .  A
N975        O982   1.262       .  A
C985        C986   1.407       .  A
C985       C2898   1.411       .  A
C985        H995   1.083       .  S
C986        C991   1.486       .  S
C986        C987   1.404       .  A
C987        C988   1.399       .  A
C987        N992   1.430       .  S
C988       C2897   1.412       .  A
C988        H993   1.084       .  S
C989        C990   1.409   1_556  A
C989       C2896   1.411       .  A
C990       C2893   1.408   1_554  A
C990        N994   1.430       .  S
C991        C996   1.413       .  A
C991       C1000   1.401       .  A
N992       O1007   1.262       .  A
N992       O1008   1.262       .  A
N994       O1005   1.262       .  A
N994       O1006   1.262       .  A
C996        C997   1.405       .  A
C996       N1001   1.430       .  S
C997        C998   1.402       .  A
C997       H1002   1.082       .  S
C998        C999   1.413       .  A
C999       C1000   1.403       .  A
C999       N1003   1.429       .  S
C1000      H1004   1.083       .  S
N1001      O1011   1.262       .  A
N1001      O1012   1.262       .  A
N1003      O1009   1.262       .  A
N1003      O1010   1.262       .  A
C1013      C2922   1.410   1_554  A
C1013      C2926   1.411   1_554  A
C1013      H1023   1.082       .  S
C1014      C2927   1.486       .  S
C1014      C1015   1.404       .  A
C1014      C2921   1.405       .  A
C1015      C1016   1.398       .  A
C1015      N1020   1.429       .  S
C1016      C1017   1.409       .  A
C1016      H1021   1.082       .  S
C1017      C1018   1.415       .  A
C1018      C2921   1.409       .  A
C1018      N2930   1.429       .  S
C1019      C2922   1.497   1_554  S
C1019      C1024   1.408       .  A
C1019      C2936   1.406       .  A
N1020      O1035   1.262       .  A
N1020      O1036   1.262       .  A
N1022      C2926   1.428       .  S
N1022      O1033   1.262   1_556  A
N1022      O2942   1.262   1_556  A
C1024      C1025   1.404       .  A
C1024      N1029   1.429       .  S
C1025      C1026   1.411       .  A
C1025      H1030   1.082       .  S
C1026      C1027   1.418       .  A
C1027      C2936   1.409       .  A
C1027      N1031   1.428       .  S
C1028      C2927   1.403       .  A
C1028      C2935   1.406       .  A
C1028      H1032   1.083       .  S
N1029      O1039   1.262       .  A
N1029      O1040   1.262   1_554  A
N1031      O1037   1.262       .  A
N1031      O2946   1.262       .  A
O1034      N2930   1.262       .  A
O1038      N2939   1.262       .  A
C1041      C1042   1.404       .  A
C1041      C1046   1.401       .  A
C1041      H1051   1.076       .  S
C1042      C1047   1.478       .  S
C1042      C1043   1.405       .  A
C1043      C1044   1.401       .  A
C1043      N1048   1.429       .  S
C1044      C1045   1.406       .  A
C1044      H1049   1.060       .  S
C1045      C1046   1.409       .  A
C1046      N1050   1.430       .  S
C1047      C1052   1.406       .  A
C1047      C1056   1.401       .  A
N1048      O1063   1.261       .  A
N1048      O1064   1.262       .  A
N1050      O1061   1.262       .  A
N1050      O1062   1.262       .  A
C1052      C1053   1.399       .  A
C1052      N1057   1.429       .  S
C1053      C1054   1.406       .  A
C1053      H1058   1.082       .  S
C1054      C1055   1.415       .  A
C1055      C1056   1.400       .  A
C1055      N1059   1.429       .  S
C1056      H1060   1.082       .  S
N1057      O1067   1.262       .  A
N1057      O1068   1.262       .  A
N1059      O1065   1.262       .  A
N1059      O1066   1.262       .  A
C1069      C1070   1.408       .  A
C1069      C1074   1.411       .  A
C1069      H1079   1.082       .  S
C1070      C1075   1.490       .  S
C1070      C1071   1.405       .  A
C1071      C1072   1.399       .  A
C1071      N1076   1.429       .  S
C1072      C1073   1.409       .  A
C1072      H1077   1.083       .  S
C1073      C1074   1.412       .  A
C1074      N1078   1.428       .  S
C1075      C1080   1.406       .  A
C1075      C1084   1.404       .  A
N1076      O1091   1.262       .  A
N1076      O1092   1.262       .  A
N1078      O1089   1.262       .  A
N1078      O1090   1.262       .  A
C1080      C1081   1.403       .  A
C1080      N1085   1.429       .  S
C1081      C1082   1.412       .  A
C1081      H1086   1.082       .  S
C1082      C1083   1.418       .  A
C1083      C1084   1.408       .  A
C1083      N1087   1.428       .  S
C1084      H1088   1.083       .  S
N1085      O1095   1.262       .  A
N1085      O1096   1.262       .  A
N1087      O1093   1.262       .  A
N1087      O1094   1.262       .  A
C1097      C1098   1.401       .  A
C1097      C1102   1.399       .  A
C1097      H1107   1.084       .  S
C1098      C1103   1.474       .  S
C1098      C1099   1.407       .  A
C1099      C1100   1.397       .  A
C1099      N1104   1.430       .  S
C1100      C1101   1.407       .  A
C1100      H1105   1.084       .  S
C1101      C1102   1.412       .  A
C1102      N1106   1.428       .  S
C1103      C1108   1.408       .  A
C1103      C1112   1.401       .  A
N1104      O1119   1.262       .  A
N1104      O1120   1.262       .  A
N1106      O1117   1.262       .  A
N1106      O1118   1.262       .  A
C1108      C1109   1.400       .  A
C1108      N1113   1.430       .  S
C1109      C1110   1.406       .  A
C1109      H1114   1.083       .  S
C1110      C1111   1.410       .  A
C1111      C1112   1.396       .  A
C1111      N1115   1.429       .  S
C1112      H1116   1.084       .  S
N1113      O1123   1.262       .  A
N1113      O1124   1.262       .  A
N1115      O1121   1.262       .  A
N1115      O1122   1.262       .  A
C1125      C1126   1.405       .  A
C1125      C1130   1.406       .  A
C1125      H1135   1.083       .  S
C1126      C1131   1.490       .  S
C1126      C1127   1.409       .  A
C1127      C1128   1.403       .  A
C1127      N1132   1.429       .  S
C1128      C1129   1.407       .  A
C1128      H1133   1.084       .  S
C1129      C1130   1.408       .  A
C1130      N1134   1.429       .  S
C1131      C1136   1.412       .  A
C1131      C1140   1.400       .  A
N1132      O1147   1.262       .  A
N1132      O1148   1.262       .  A
N1134      O1145   1.262       .  A
N1134      O1146   1.262       .  A
C1136      C1137   1.406       .  A
C1136      N1141   1.428       .  S
C1137      C1138   1.402       .  A
C1137      H1142   1.084       .  S
C1138      C1139   1.415       .  A
C1139      C1140   1.405       .  A
C1139      N1143   1.429       .  S
C1140      H1144   1.083       .  S
N1141      O1151   1.262       .  A
N1141      O1152   1.261       .  A
N1143      O1149   1.261       .  A
N1143      O1150   1.262       .  A
C1153      C1154   1.402       .  A
C1153      C1158   1.404       .  A
C1153      H1163   1.083       .  S
C1154      C1159   1.490   1_565  S
C1154      C1155   1.412       .  A
C1155      C1156   1.405       .  A
C1155      N1160   1.429   1_565  S
C1156      C1157   1.403       .  A
C1156      H1161   1.083       .  S
C1157      C1158   1.413       .  A
C1158      N1162   1.428       .  S
C1159      C1164   1.408       .  A
C1159      C1168   1.405       .  A
N1160      O1175   1.262   1_545  A
N1160      O1176   1.262       .  A
N1162      O1173   1.261       .  A
N1162      O1174   1.262       .  A
C1164      C1165   1.404       .  A
C1164      N1169   1.429       .  S
C1165      C1166   1.406       .  A
C1165      H1170   1.085       .  S
C1166      C1167   1.409       .  A
C1167      C1168   1.405       .  A
C1167      N1171   1.427       .  S
C1168      H1172   1.085   1_545  S
N1169      O1179   1.262       .  A
N1169      O1180   1.262       .  A
N1171      O1178   1.261       .  A
N1171      O3085   1.262       .  A
O1177      N3079   1.262       .  A
C1181      C1182   1.402       .  A
C1181      C1186   1.400       .  A
C1181      H1191   1.084       .  S
C1182      C1187   1.477       .  S
C1182      C1183   1.406       .  A
C1183      C1184   1.397       .  A
C1183      N1188   1.429       .  S
C1184      C1185   1.406       .  A
C1184      H1189   1.083       .  S
C1185      C1186   1.415       .  A
C1186      N1190   1.430       .  S
C1187      C1192   1.407       .  A
C1187      C1196   1.404       .  A
N1188      O1203   1.262       .  A
N1188      O1204   1.262       .  A
N1190      O1201   1.262       .  A
N1190      O1202   1.262       .  A
C1192      C1193   1.398       .  A
C1192      N1197   1.429       .  S
C1193      C1194   1.403       .  A
C1193      H1198   1.084       .  S
C1194      C1195   1.409       .  A
C1195      C1196   1.399       .  A
C1195      N1199   1.430       .  S
C1196      H1200   1.084       .  S
N1197      O1207   1.262       .  A
N1197      O1208   1.262       .  A
N1199      O1205   1.262       .  A
N1199      O1206   1.262       .  A
C1209      C1210   1.403       .  A
C1209      C1214   1.405       .  A
C1209      H1219   1.083       .  S
C1210      C3123   1.490   1_554  S
C1210      C3119   1.409       .  A
C1211      C3118   1.413       .  A
C1211      C3120   1.408       .  A
C1211      N1216   1.429       .  S
C1212      C1213   1.406       .  A
C1212      C3119   1.403       .  A
C1212      H1217   1.083       .  S
C1213      C1214   1.416       .  A
C1214      N1218   1.430       .  S
C1215      C3118   1.497       .  S
C1215      C1220   1.415       .  A
C1215      C1224   1.400       .  A
N1216      O1231   1.262       .  A
N1216      O1232   1.262       .  A
N1218      O1229   1.262       .  A
N1218      O1230   1.262       .  A
C1220      C1221   1.410       .  A
C1220      N3133   1.428       .  S
C1221      C1222   1.407       .  A
C1221      H1226   1.083       .  S
C1222      C1223   1.421       .  A
C1223      C1224   1.402       .  A
C1223      N1227   1.430       .  S
C1224      H1228   1.083       .  S
N1225      C3128   1.428       .  S
N1225      O1235   1.262       .  A
N1225      O1236   1.261       .  A
N1227      O1233   1.262       .  A
N1227      O1234   1.262       .  A
C1237      C1238   1.402       .  A
C1237      C1242   1.397       .  A
C1237      H1247   1.084       .  S
C1238      C3151   1.470   1_554  S
C1238      C1239   1.407   1_554  A
C1239      C1240   1.397   1_556  A
C1239      N3152   1.428       .  S
C1240      C1241   1.399       .  A
C1240      H1245   1.084       .  S
C1241      C1242   1.406       .  A
C1242      N1246   1.430       .  S
C1243      C3146   1.476       .  S
C1243      C1248   1.411       .  A
C1243      C1252   1.402       .  A
N1244      C3147   1.431       .  S
N1244      O1259   1.262       .  A
N1244      O1260   1.262       .  A
N1246      O1257   1.262       .  A
N1246      O1258   1.262       .  A
C1248      C1249   1.398       .  A
C1248      N3161   1.431       .  S
C1249      C1250   1.402       .  A
C1249      H1254   1.084       .  S
C1250      C1251   1.409       .  A
C1251      C1252   1.399       .  A
C1251      N1255   1.429       .  S
C1252      H1256   1.084       .  S
N1253      C3156   1.430       .  S
N1253      O1263   1.262       .  A
N1253      O1264   1.262       .  A
N1255      O1261   1.262       .  A
N1255      O1262   1.262       .  A
C1265      C1266   1.408       .  A
C1265      C1270   1.410       .  A
C1265      H1275   1.082       .  S
C1266      C1271   1.495       .  S
C1266      C1267   1.408       .  A
C1267      C1268   1.399       .  A
C1267      N1272   1.429       .  S
C1268      C1269   1.410       .  A
C1268      H1273   1.082       .  S
C1269      C1270   1.415       .  A
C1270      N1274   1.428       .  S
C1271      C1276   1.408       .  A
C1271      C1280   1.410       .  A
N1272      O1287   1.262       .  A
N1272      O1288   1.262       .  A
N1274      O1285   1.262       .  A
N1274      O1286   1.262       .  A
C1276      C1277   1.398       .  A
C1276      N1281   1.429       .  S
C1277      C1278   1.408       .  A
C1277      H1282   1.083       .  S
C1278      C1279   1.412       .  A
C1279      C1280   1.409       .  A
C1279      N1283   1.428       .  S
C1280      H1284   1.082       .  S
N1281      O1291   1.262       .  A
N1281      O1292   1.262       .  A
N1283      O1289   1.262       .  A
N1283      O1290   1.262       .  A
C1293      C1294   1.401       .  A
C1293      C1298   1.397       .  A
C1293      H1303   1.083       .  S
C1294      C1299   1.490       .  S
C1294      C1295   1.412       .  A
C1295      C1296   1.411       .  A
C1295      N1300   1.428       .  S
C1296      C1297   1.410       .  A
C1296      H1301   1.083   1_554  S
C1297      C1298   1.413       .  A
C1298      N3210   1.429       .  S
C1299      C1304   1.411       .  A
C1299      C1308   1.406       .  A
N1300      O1315   1.261   1_454  A
N1300      O1316   1.262   1_455  A
N1302      C3206   1.430       .  S
N1302      O1313   1.262       .  A
N1302      O1314   1.262       .  A
C1304      C1305   1.408   1_455  A
C1304      N3217   1.429   1_455  S
C1305      C1306   1.409   1_655  A
C1305      H1310   1.084       .  S
C1306      C1307   1.409       .  A
C1307      C1308   1.400       .  A
C1307      N1311   1.429       .  S
C1308      H1312   1.084       .  S
N1309      C3212   1.428       .  S
N1309      O1319   1.262   1_655  A
N1309      O1320   1.261       .  A
N1311      O1317   1.262   1_554  A
N1311      O1318   1.262       .  A
C1321      C1322   1.399       .  A
C1321      C1326   1.397       .  A
C1321      H1331   1.084       .  S
C1322      C1327   1.471       .  S
C1322      C1323   1.408       .  A
C1323      C1324   1.396       .  A
C1323      N1328   1.432       .  S
C1324      C1325   1.407       .  A
C1324      H1329   1.083       .  S
C1325      C1326   1.414       .  A
C1326      N1330   1.429       .  S
C1327      C1332   1.408       .  A
C1327      C1336   1.402       .  A
N1328      O1343   1.262       .  A
N1328      O1344   1.262       .  A
N1330      O1341   1.262       .  A
N1330      O1342   1.262       .  A
C1332      C1333   1.396       .  A
C1332      N1337   1.431       .  S
C1333      C1334   1.402       .  A
C1333      H1338   1.084       .  S
C1334      C2007   1.465   1_554  S
C1334      C1335   1.408       .  A
C1335      C1336   1.396       .  A
C1335      N3247   1.430   1_554  S
C1336      H1340   1.083       .  S
N1337      O1347   1.262       .  A
N1337      O1348   1.262       .  A
N1339      C3243   1.429       .  S
N1339      O1345   1.262       .  A
N1339      O1346   1.262       .  A
C1349      C1350   1.408       .  A
C1349      C1354   1.410       .  A
C1349      H1359   1.081       .  S
C1350      C1355   1.496       .  S
C1350      C1351   1.408       .  A
C1351      C1352   1.399       .  A
C1351      N1356   1.429       .  S
C1352      C1353   1.409       .  A
C1352      H1357   1.082       .  S
C1353      C1354   1.417       .  A
C1354      N1358   1.429       .  S
C1355      C1360   1.409       .  A
C1355      C1364   1.409       .  A
N1356      O1371   1.262       .  A
N1356      O1372   1.262       .  A
N1358      O1369   1.262       .  A
N1358      O1370   1.262       .  A
C1360      C1361   1.399       .  A
C1360      N1365   1.429       .  S
C1361      C1362   1.409       .  A
C1361      H1366   1.083       .  S
C1362      C1363   1.413       .  A
C1363      C1364   1.409       .  A
C1363      N1367   1.428       .  S
C1364      H1368   1.082       .  S
N1365      O1375   1.262       .  A
N1365      O1376   1.262       .  A
N1367      O1373   1.262       .  A
N1367      O1374   1.262       .  A
C1377      C1378   1.398       .  A
C1377      C1382   1.389       .  A
C1377      H1387   1.084       .  S
C1378      C1383   1.482       .  S
C1378      C1379   1.410       .  A
C1379      C1380   1.410       .  A
C1379      N1384   1.427       .  S
C1380      C1381   1.407       .  A
C1380      H1385   1.083       .  S
C1381      C1382   1.415       .  A
C1382      N1386   1.431       .  S
C1383      C1388   1.407       .  A
C1383      C1392   1.407       .  A
N1384      O1399   1.262       .  A
N1384      O1400   1.262       .  A
N1386      O1397   1.262       .  A
N1386      O1398   1.262       .  A
C1388      C1389   1.389       .  A
C1388      N1393   1.431       .  S
C1389      C1390   1.405       .  A
C1389      H1394   1.084       .  S
C1390      C1391   1.412       .  A
C1391      C1392   1.412       .  A
C1391      N1395   1.427   1_655  S
C1392      H1396   1.083       .  S
N1393      O1403   1.262       .  A
N1393      O1404   1.262       .  A
N1395      O1401   1.262       .  A
N1395      O1402   1.262       .  A
C1405      C1406   1.402       .  A
C1405      C1410   1.400       .  A
C1405      H1415   1.083       .  S
C1406      C1411   1.474       .  S
C1406      C1407   1.406       .  A
C1407      C1408   1.399       .  A
C1407      N1412   1.429       .  S
C1408      C1409   1.403       .  A
C1408      H1413   1.083       .  S
C1409      C1410   1.410       .  A
C1410      N1414   1.429       .  S
C1411      C1416   1.405       .  A
C1411      C1420   1.402       .  A
N1412      O1427   1.262       .  A
N1412      O1428   1.262       .  A
N1414      O1425   1.262       .  A
N1414      O1426   1.262       .  A
C1416      C1417   1.397       .  A
C1416      N1421   1.428       .  S
C1417      C1418   1.405       .  A
C1417      H1422   1.084       .  S
C1418      C1419   1.412       .  A
C1419      C1420   1.402       .  A
C1419      N1423   1.429       .  S
C1420      H1424   1.083       .  S
N1421      O1431   1.262       .  A
N1421      O1432   1.262       .  A
N1423      O1429   1.262       .  A
N1423      O1430   1.262       .  A
C1433      C1434   1.408       .  A
C1433      C1438   1.410       .  A
C1433      H1443   1.082       .  S
C1434      C1439   1.491       .  S
C1434      C1435   1.407       .  A
C1435      C1436   1.399       .  A
C1435      N1440   1.429       .  S
C1436      C1437   1.410       .  A
C1436      H3349   1.083       .  S
C1437      C1438   1.412       .  A
C1438      N1442   1.428       .  S
C1439      C1444   1.408       .  A
C1439      C1448   1.403       .  A
N1440      O1456   1.262       .  A
N1440      O3363   1.262       .  A
H1441      C3344   1.083       .  S
N1442      O1453   1.262       .  A
N1442      O1454   1.262       .  A
C1444      C1445   1.404       .  A
C1444      N1449   1.429       .  S
C1445      C1446   1.410       .  A
C1445      H1450   1.082       .  S
C1446      C1447   1.419       .  A
C1447      C1448   1.405       .  A
C1447      N1451   1.429       .  S
C1448      H1452   1.082       .  S
N1449      O1459   1.262       .  A
N1449      O1460   1.262       .  A
N1451      O1457   1.262       .  A
N1451      O1458   1.262       .  A
O1455      N3348   1.262       .  A
C1461      C1462   1.404       .  A
C1461      C1466   1.402       .  A
C1461      H1471   1.084       .  S
C1462      C1467   1.491   1_655  S
C1462      C1463   1.411       .  A
C1463      C1464   1.408       .  A
C1463      N1468   1.428       .  S
C1464      C1465   1.407       .  A
C1464      H1469   1.083       .  S
C1465      C1466   1.409       .  A
C1466      N1470   1.429       .  S
C1467      C1472   1.411       .  A
C1467      C1476   1.401       .  A
N1468      O1483   1.262       .  A
N1468      O1484   1.262       .  A
N1470      O1481   1.262       .  A
N1470      O1482   1.261       .  A
C1472      C1473   1.410       .  A
C1472      N1477   1.429       .  S
C1473      C1474   1.409       .  A
C1473      H1478   1.083       .  S
C1474      C1475   1.417       .  A
C1475      C1476   1.400       .  A
C1475      N1479   1.430       .  S
C1476      H1480   1.084       .  S
N1477      O1487   1.262   1_455  A
N1477      O1488   1.262       .  A
N1479      O1485   1.262       .  A
N1479      O1486   1.262       .  A
C1489      C1490   1.408       .  A
C1489      C1494   1.409       .  A
C1489      H1499   1.081       .  S
C1490      C1495   1.499       .  S
C1490      C1491   1.411       .  A
C1491      C1492   1.403       .  A
C1491      N1496   1.429       .  S
C1492      C1493   1.407       .  A
C1492      H1497   1.082       .  S
C1493      C1494   1.415       .  A
C1494      N1498   1.429       .  S
C1495      C1500   1.410       .  A
C1495      C1504   1.408       .  A
N1496      O1511   1.262       .  A
N1496      O1512   1.262       .  A
N1498      O1509   1.262       .  A
N1498      O1510   1.262       .  A
C1500      C1501   1.402       .  A
C1500      N1505   1.429       .  S
C1501      C1502   1.410       .  A
C1501      H3414   1.078       .  S
C1502      C1503   1.415       .  A
C1503      C1504   1.409       .  A
C1503      N1507   1.428       .  S
C1504      H1508   1.081       .  S
N1505      O1516   1.262       .  A
N1505      O3423   1.262       .  A
H1506      C3409   1.077       .  S
N1507      O1513   1.262       .  A
N1507      O1514   1.262       .  A
O1515      N3413   1.262       .  A
C1517      C1518   1.405       .  A
C1517      C1522   1.405       .  A
C1517      H1527   1.083       .  S
C1518      C1523   1.480       .  S
C1518      C1519   1.406       .  A
C1519      C1520   1.396       .  A
C1519      N1524   1.429       .  S
C1520      C1521   1.405       .  A
C1520      H1525   1.083       .  S
C1521      C1522   1.412       .  A
C1522      N1526   1.429       .  S
C1523      C1528   1.406       .  A
C1523      C1532   1.403       .  A
N1524      O1539   1.262       .  A
N1524      O1540   1.262       .  A
N1526      O1537   1.262       .  A
N1526      O1538   1.262       .  A
C1528      C1529   1.399       .  A
C1528      N1533   1.429       .  S
C1529      C1530   1.407       .  A
C1529      H1534   1.084       .  S
C1530      C1531   1.410       .  A
C1531      C1532   1.402       .  A
C1531      N1535   1.428       .  S
C1532      H1536   1.084       .  S
N1533      O1543   1.262       .  A
N1533      O1544   1.262       .  A
N1535      O1541   1.261       .  A
N1535      O1542   1.262       .  A
C1545      C1546   1.403       .  A
C1545      C1550   1.409       .  A
C1545      H1555   1.083       .  S
C1546      C1551   1.495       .  S
C1546      C1547   1.410       .  A
C1547      C1548   1.406       .  A
C1547      N1552   1.429       .  S
C1548      C1549   1.409       .  A
C1548      H1553   1.083       .  S
C1549      C1550   1.419       .  A
C1550      N1554   1.428       .  S
C1551      C1556   1.407       .  A
C1551      C1560   1.407       .  A
N1552      O1567   1.262       .  A
N1552      O1568   1.262       .  A
N1554      O1565   1.262       .  A
N1554      O1566   1.262       .  A
C1556      C1557   1.403       .  A
C1556      N1561   1.429       .  S
C1557      C1558   1.411       .  A
C1557      H1562   1.083       .  S
C1558      C1559   1.415       .  A
C1559      C1560   1.412       .  A
C1559      N1563   1.428       .  S
C1560      H1564   1.083       .  S
N1561      O1571   1.262       .  A
N1561      O1572   1.262       .  A
N1563      O1569   1.262       .  A
N1563      O1570   1.262       .  A
C1573      C1574   1.403       .  A
C1573      C1578   1.401       .  A
C1573      H1583   1.083       .  S
C1574      C1579   1.475       .  S
C1574      C1575   1.408       .  A
C1575      C1576   1.390       .  A
C1575      N1580   1.431       .  S
C1576      C1577   1.403       .  A
C1576      H1581   1.084       .  S
C1577      C1578   1.412       .  A
C1578      N3490   1.429       .  S
C1579      C1584   1.405       .  A
C1579      C1588   1.401       .  A
N1580      O1595   1.262       .  A
N1580      O1596   1.262       .  A
N1582      C3486   1.429       .  S
N1582      O1593   1.262       .  A
N1582      O1594   1.261       .  A
C1584      C1585   1.395       .  A
C1584      N1589   1.430       .  S
C1585      C1586   1.410       .  A
C1585      H1590   1.083       .  S
C1586      C1587   1.417       .  A
C1587      C1588   1.397       .  A
C1587      N1591   1.431       .  S
C1588      H1592   1.084       .  S
N1589      O1599   1.262       .  A
N1589      O1600   1.262       .  A
N1591      O1597   1.262       .  A
N1591      O1598   1.262       .  A
C1601      C1602   1.408       .  A
C1601      C1606   1.411       .  A
C1601      H1611   1.082       .  S
C1602      C1607   1.501       .  S
C1602      C1603   1.409       .  A
C1603      C1604   1.408       .  A
C1603      N1608   1.429       .  S
C1604      C1605   1.409       .  A
C1604      H1609   1.078       .  S
C1605      C1606   1.410       .  A
C1606      N1610   1.429       .  S
C1607      C1616   1.405       .  A
C1607      C3520   1.413       .  A
N1608      O1623   1.262       .  A
N1608      O1624   1.262       .  A
N1610      O1621   1.261       .  A
N1610      O1622   1.262       .  A
C1612      C1613   1.403   1_556  A
C1612      C3515   1.414       .  A
C1612      N1617   1.430       .  S
C1613      C1614   1.402       .  A
C1613      H1618   1.073       .  S
C1614      C3523   1.411   1_554  A
C1615      C1616   1.410       .  A
C1615      C3522   1.414       .  A
C1615      N1619   1.428       .  S
C1616      H1620   1.082       .  S
N1617      O1627   1.262       .  A
N1617      O1628   1.261       .  A
N1619      O1625   1.261       .  A
N1619      O1626   1.262       .  A
C1629      C1630   1.404       .  A
C1629      C1634   1.409       .  A
C1629      H1639   1.083       .  S
C1630      C1635   1.494       .  S
C1630      C1631   1.406       .  A
C1631      C1632   1.405       .  A
C1631      N1636   1.428       .  S
C1632      C1633   1.412       .  A
C1632      H1637   1.083       .  S
C1633      C1634   1.419       .  A
C1634      N1638   1.428       .  S
C1635      C1640   1.404       .  A
C1635      C1644   1.408       .  A
N1636      O1651   1.262       .  A
N1636      O1652   1.262       .  A
N1638      O1649   1.262       .  A
N1638      O1650   1.262       .  A
C1640      C1641   1.402       .  A
C1640      N1645   1.431       .  S
C1641      C1642   1.414       .  A
C1641      H1646   1.083       .  S
C1642      C1643   1.416       .  A
C1643      C1644   1.415       .  A
C1643      N1647   1.428       .  S
C1644      H1648   1.082       .  S
N1645      O1655   1.262       .  A
N1645      O1656   1.262       .  A
N1647      O1653   1.262       .  A
N1647      O1654   1.262       .  A
C1657      C1658   1.401       .  A
C1657      C1662   1.400       .  A
C1657      H1667   1.084       .  S
C1658      C3571   1.475       .  S
C1658      C1659   1.408       .  A
C1659      C1660   1.397       .  A
C1659      N3572   1.431       .  S
C1660      C1661   1.407       .  A
C1660      H1665   1.084       .  S
C1661      C1662   1.414       .  A
C1662      N1666   1.429       .  S
C1663      C3566   1.482   1_554  S
C1663      C1668   1.410   1_554  A
C1663      C1672   1.403       .  A
N1664      C3567   1.431       .  S
N1664      O1679   1.262   1_556  A
N1664      O1680   1.262       .  A
N1666      O1677   1.262       .  A
N1666      O1678   1.262       .  A
C1668      C1669   1.400   1_556  A
C1668      N3581   1.431       .  S
C1669      C1670   1.405       .  A
C1669      H1674   1.083       .  S
C1670      C1671   1.411       .  A
C1671      C1672   1.401       .  A
C1671      N1675   1.429       .  S
C1672      H1676   1.083       .  S
N1673      C3576   1.430       .  S
N1673      O1683   1.262       .  A
N1673      O1684   1.262       .  A
N1675      O1681   1.262       .  A
N1675      O1682   1.262       .  A
C1685      C1686   1.402       .  A
C1685      C1690   1.406       .  A
C1685      H3603   1.082       .  S
C1686      C3599   1.496   1_554  S
C1686      C1687   1.411       .  A
C1687      C1688   1.409       .  A
C1687      N1692   1.430       .  S
C1688      C1689   1.411       .  A
C1688      H1693   1.082       .  S
C1689      C1690   1.420       .  A
C1690      N1694   1.429       .  S
C1691      C3594   1.489       .  S
C1691      C1696   1.412       .  A
C1691      C1700   1.399       .  A
N1692      O1707   1.262   1_554  A
N1692      O1708   1.262       .  A
N1694      O1706   1.261       .  A
N1694      O3613   1.262       .  A
H1695      C3593   1.082       .  S
C1696      C1697   1.411       .  A
C1696      N1701   1.428       .  S
C1697      C1698   1.405       .  A
C1697      H1702   1.082       .  S
C1698      C1699   1.415       .  A
C1699      C1700   1.400       .  A
C1699      N1703   1.430       .  S
C1700      H1704   1.083       .  S
N1701      O1711   1.262       .  A
N1701      O3620   1.261       .  A
N1703      O1709   1.262       .  A
N1703      O1710   1.261       .  A
O1705      N3602   1.262       .  A
O1712      N3609   1.262       .  A
C1713      C1714   1.403       .  A
C1713      C1718   1.400       .  A
C1713      H1723   1.085       .  S
C1714      C1719   1.483       .  S
C1714      C1715   1.411       .  A
C1715      C1716   1.400       .  A
C1715      N1720   1.431       .  S
C1716      C1717   1.407       .  A
C1716      H1721   1.084       .  S
C1717      C1718   1.412       .  A
C1718      N1722   1.428       .  S
C1719      C1724   1.411       .  A
C1719      C1728   1.403       .  A
N1720      O1735   1.262       .  A
N1720      O1736   1.262       .  A
N1722      O1733   1.262       .  A
N1722      O1734   1.262       .  A
C1724      C1725   1.403       .  A
C1724      N1729   1.432       .  S
C1725      C1726   1.407       .  A
C1725      H1730   1.081       .  S
C1726      C1727   1.411       .  A
C1727      C1728   1.397       .  A
C1727      N1731   1.429       .  S
C1728      H1732   1.084       .  S
N1729      O1739   1.262       .  A
N1729      O1740   1.262       .  A
N1731      O1737   1.262       .  A
N1731      O1738   1.262       .  A
C1741      C1742   1.400       .  A
C1741      C1746   1.403       .  A
C1741      H1751   1.082       .  S
C1742      C1747   1.489   1_455  S
C1742      C1743   1.413       .  A
C1743      C1744   1.404       .  A
C1743      N1748   1.429   1_455  S
C1744      C1745   1.401       .  A
C1744      H1749   1.083       .  S
C1745      C1746   1.414       .  A
C1746      N1750   1.429       .  S
C1747      C1752   1.409       .  A
C1747      C1756   1.405       .  A
N1748      O1763   1.262       .  A
N1748      O1764   1.262       .  A
N1750      O1761   1.262       .  A
N1750      O1762   1.261       .  A
C1752      C1753   1.404       .  A
C1752      N1757   1.428       .  S
C1753      C1754   1.406       .  A
C1753      H1758   1.083       .  S
C1754      C1755   1.408       .  A
C1755      C1756   1.403       .  A
C1755      N1759   1.428       .  S
C1756      H1760   1.082   1_655  S
N1757      O1767   1.262       .  A
N1757      O1768   1.262       .  A
N1759      O1766   1.261       .  A
N1759      O3673   1.262       .  A
O1765      N3667   1.262       .  A
C1769      C1770   1.408       .  A
C1769      C1774   1.412       .  A
C1769      H1779   1.083       .  S
C1770      C1775   1.492       .  S
C1770      C1771   1.406       .  A
C1771      C1772   1.401       .  A
C1771      N1776   1.429       .  S
C1772      C1773   1.410       .  A
C1772      H1777   1.084       .  S
C1773      C1774   1.413       .  A
C1774      N1778   1.432       .  S
C1775      C1780   1.415       .  A
C1775      C1784   1.399       .  A
N1776      O1791   1.262       .  A
N1776      O1792   1.262       .  A
N1778      O1789   1.262       .  A
N1778      O1790   1.262       .  A
C1780      C1781   1.410       .  A
C1780      N1785   1.429       .  S
C1781      C1782   1.404       .  A
C1781      H1786   1.083       .  S
C1782      C1783   1.414       .  A
C1783      C1784   1.402       .  A
C1783      N1787   1.428       .  S
C1784      H1788   1.083       .  S
N1785      O1795   1.262       .  A
N1785      O1796   1.262       .  A
N1787      O1793   1.261       .  A
N1787      O1794   1.261       .  A
C1797      C1798   1.407       .  A
C1797      C1802   1.411       .  A
C1797      H1807   1.082       .  S
C1798      C1803   1.487       .  S
C1798      C1799   1.404       .  A
C1799      C1800   1.397       .  A
C1799      N1804   1.428       .  S
C1800      C1801   1.408       .  A
C1800      H1805   1.083       .  S
C1801      C1802   1.413       .  A
C1802      N1806   1.428       .  S
C1803      C1808   1.406       .  A
C1803      C1812   1.403       .  A
N1804      O1819   1.262       .  A
N1804      O1820   1.262       .  A
N1806      O1817   1.262       .  A
N1806      O1818   1.262       .  A
C1808      C1809   1.402       .  A
C1808      N1813   1.429       .  S
C1809      C1810   1.410       .  A
C1809      H1814   1.083       .  S
C1810      C1811   1.417       .  A
C1811      C1812   1.409       .  A
C1811      N1815   1.428       .  S
C1812      H1816   1.083       .  S
N1813      O1823   1.262       .  A
N1813      O1824   1.262       .  A
N1815      O1821   1.262       .  A
N1815      O1822   1.262       .  A
C1825      C1826   1.402       .  A
C1825      C1830   1.403       .  A
C1825      H1835   1.084       .  S
C1826      C1831   1.482       .  S
C1826      C1827   1.407       .  A
C1827      C1828   1.399       .  A
C1827      N1832   1.430       .  S
C1828      C1829   1.408       .  A
C1828      H1833   1.084       .  S
C1829      C2227   1.489       .  S
C1829      C1830   1.416       .  A
C1830      N3742   1.429       .  S
C1831      C1836   1.412       .  A
C1831      C1840   1.402       .  A
N1832      O1847   1.262       .  A
N1832      O1848   1.262       .  A
N1834      C3738   1.429       .  S
N1834      O1845   1.262       .  A
N1834      O1846   1.262       .  A
C1836      C1837   1.401       .  A
C1836      N1841   1.432       .  S
C1837      C1838   1.402       .  A
C1837      H1842   1.084       .  S
C1838      C1839   1.412       .  A
C1839      C1840   1.401       .  A
C1839      N1843   1.429       .  S
C1840      H1844   1.084       .  S
N1841      O1851   1.262       .  A
N1841      O1852   1.262       .  A
N1843      O1849   1.262       .  A
N1843      O1850   1.262       .  A
C1853      C1854   1.404       .  A
C1853      C1858   1.405       .  A
C1853      H1863   1.084       .  S
C1854      C1859   1.498       .  S
C1854      C1855   1.413       .  A
C1855      C1856   1.411       .  A
C1855      N1860   1.429       .  S
C1856      C1857   1.409       .  A
C1856      H1861   1.083       .  S
C1857      C1858   1.417       .  A
C1858      N3770   1.429       .  S
C1859      C1864   1.414       .  A
C1859      C1868   1.399       .  A
N1860      O1875   1.262       .  A
N1860      O1876   1.262       .  A
N1862      C3766   1.429       .  S
N1862      O1873   1.262       .  A
N1862      O1874   1.262       .  A
C1864      C1865   1.413       .  A
C1864      N1869   1.429       .  S
C1865      C1866   1.410       .  A
C1865      H1870   1.083       .  S
C1866      C1867   1.423       .  A
C1867      C1868   1.401       .  A
C1867      N1871   1.430       .  S
C1868      H1872   1.084       .  S
N1869      O1879   1.262       .  A
N1869      O1880   1.262       .  A
N1871      O1877   1.262       .  A
N1871      O1878   1.262       .  A
C1881      C1882   1.403       .  A
C1881      C1886   1.397       .  A
C1881      H1891   1.085       .  S
C1882      C1887   1.491       .  S
C1882      C1883   1.414       .  A
C1883      C1884   1.400       .  A
C1883      N1888   1.431       .  S
C1884      C1885   1.405       .  A
C1884      H1889   1.086       .  S
C1885      C1886   1.416       .  A
C1886      N1890   1.429       .  S
C1887      C1892   1.415       .  A
C1887      C1896   1.407       .  A
N1888      O1903   1.262       .  A
N1888      O1904   1.262       .  A
N1890      O1901   1.262       .  A
N1890      O1902   1.262       .  A
C1892      C1893   1.398       .  A
C1892      N1897   1.430       .  S
C1893      C1894   1.402       .  A
C1893      H1898   1.082       .  S
C1894      C1895   1.411       .  A
C1895      C1896   1.399       .  A
C1895      N1899   1.430       .  S
C1896      H1900   1.082       .  S
N1897      O1907   1.262       .  A
N1897      O1908   1.262       .  A
N1899      O1905   1.262       .  A
N1899      O1906   1.262       .  A
Fe1909     O1925   2.079       .  S
Fe1909     O1915   2.053       .  S
Fe1909     O1922   2.068       .  S
Fe1909     O1914   2.069       .  S
Fe1909     O1920   1.949       .  S
Fe1910     O1913   2.045       .  S
Fe1910     O1917   2.117       .  S
Fe1910     O1921   2.040       .  S
Fe1910     O1926   2.122       .  S
Fe1910     O1920   1.938       .  S
Fe1911     O1929   2.120       .  S
Fe1911     O1916   2.061       .  S
Fe1911     O1923   2.044       .  S
Fe1911     O1912   2.110       .  S
Fe1911     O1920   1.939       .  S
O1912      C1919   1.284       .  A
O1913      C1927   1.260       .  A
O1914      C1919   1.275       .  A
O1915      C1918   1.263       .  A
O1916      C1928   1.267       .  A
O1917      C1930   1.289       .  A
C1918      O1923   1.261       .  A
C1918      C3793   1.474       .  S
C1919      C3709   1.488       .  S
O1921      C1924   1.258       .  A
O1922      C1924   1.261       .  A
C1924      C3746   1.469       .  S
O1925      C1930   1.280       .  A
O1926      C1928   1.285       .  A
C1927      O1929   1.275       .  A
C1927      C3653   1.491       .  S
C1928      C3690   1.502       .  S
C1930      C3774   1.508       .  S
Fe1931     O1947   2.045       .  S
Fe1931     O1937   2.066       .  S
Fe1931     O1944   2.070   1_655  S
Fe1931     O1936   2.042   1_655  S
Fe1931     O1942   1.950       .  S
Fe1932     O1935   2.027   1_455  S
Fe1932     O1939   2.149   1_455  S
Fe1932     O1943   2.057       .  S
Fe1932     O1948   2.135       .  S
Fe1932     O1942   1.944   1_455  S
Fe1933     O1951   2.115       .  S
Fe1933     O1938   2.024   1_655  S
Fe1933     O1945   2.047       .  S
Fe1933     O1934   2.138   1_655  S
Fe1933     O1942   1.941       .  S
O1934      C1941   1.291       .  A
O1935      C1949   1.262       .  A
O1936      C1941   1.276       .  A
O1937      C1940   1.262       .  A
O1938      C1950   1.262       .  A
O1939      C1952   1.292       .  A
C1940      O1945   1.256       .  A
C1940      C3625   1.473       .  S
C1941      C3550   1.503       .  S
O1943      C1946   1.261       .  A
O1944      C1946   1.264       .  A
C1946      C3569   1.488       .  S
O1947      C1952   1.274       .  A
O1948      C1950   1.283       .  A
C1949      O1951   1.278       .  A
C1949      C3513   1.476       .  S
C1950      C3681   1.501       .  S
C1952      C3606   1.495       .  S
Fe1953     O1969   2.060       .  S
Fe1953     O1959   2.058       .  S
Fe1953     O1966   2.064       .  S
Fe1953     O1958   2.061       .  S
Fe1953     O1964   1.973       .  S
Fe1954     O1957   2.033       .  S
Fe1954     O1961   2.131       .  S
Fe1954     O1965   2.049       .  S
Fe1954     O1970   2.126       .  S
Fe1954     O1964   1.970       .  S
Fe1955     O1967   2.040       .  S
Fe1955     O1956   2.125       .  S
O1956      C1963   1.285       .  A
O1957      C1971   1.263       .  A
O1960      C1972   1.260       .  A
O1961      C1974   1.285       .  A
C1962      O1967   1.259       .  A
C1962      C3485   1.469       .  S
C1963      C3410   1.495       .  S
O1965      C1968   1.263       .  A
O1966      C1968   1.264       .  A
C1968      C3438   1.482       .  S
O1969      C1974   1.274       .  A
O1970      C1972   1.280       .  A
C1971      O1973   1.277       .  A
C1971      C3662   1.484       .  S
C1972      C3522   1.486       .  S
C1974      C3466   1.504       .  S
Fe1975     O1991   2.046       .  S
Fe1975     O1981   2.090       .  S
Fe1975     O1988   2.091       .  S
Fe1975     O1980   2.043       .  S
Fe1975     O1986   1.930       .  S
Fe1976     O1979   2.032       .  S
Fe1976     O1983   2.092       .  S
Fe1976     O1987   2.065       .  S
Fe1976     O1992   2.106       .  S
Fe1976     O1986   1.940       .  S
Fe1977     O1995   2.117       .  S
Fe1977     O1982   2.057       .  S
Fe1977     O1989   2.093       .  S
Fe1977     O1978   2.092       .  S
Fe1977     O1986   1.946       .  S
O1978      C1985   1.278       .  A
O1979      C1993   1.264       .  A
O1980      C1985   1.269       .  A
O1981      C1984   1.275       .  A
O1982      C1994   1.268       .  A
O1983      C1996   1.275       .  A
C1984      O1989   1.276       .  A
C1984      C3457   1.511       .  S
C1985      C3494   1.483       .  S
O1987      C1990   1.271       .  A
O1988      C1990   1.275       .  A
C1990      C3354   1.497       .  S
O1991      C1996   1.269       .  A
O1992      C1994   1.276       .  A
C1993      O1995   1.279       .  A
C1993      C3289   1.484       .  S
C1994      C3373   1.485       .  S
C1996      C3317   1.476       .  S
Fe1997     O2013   2.036       .  S
Fe1997     O2003   2.088       .  S
Fe1997     O2010   2.079       .  S
Fe1997     O2002   2.033       .  S
Fe1997     O2008   1.957       .  S
Fe1998     O2001   2.056       .  S
Fe1998     O2005   2.084       .  S
Fe1998     O2014   2.103       .  S
Fe1998     O2008   1.958       .  S
Fe1999     O2017   2.096       .  S
Fe1999     O2004   2.054       .  S
Fe1999     O2011   2.077       .  S
Fe1999     O2000   2.092       .  S
Fe1999     O2008   1.960       .  S
O2000      C2007   1.276       .  A
O2001      C2015   1.267       .  A
O2002      C2007   1.267       .  A
O2003      C2006   1.272       .  A
O2005      C2018   1.276       .  A
C2006      O2011   1.270       .  A
C2006      C3261   1.503       .  S
O2009      C2012   1.268       .  A
C2012      C3765   1.506       .  S
O2013      C2018   1.269       .  A
C2015      O2017   1.274       .  A
C2015      C3382   1.489       .  S
C2016      C3205   1.486       .  S
C2018      C3802   1.457       .  S
Fe2019     O2035   2.042   1_655  S
Fe2019     O2025   2.099       .  S
Fe2019     O2032   2.093   1_655  S
Fe2019     O2024   2.046       .  S
Fe2019     O2030   1.943       .  S
Fe2020     O2023   2.052       .  S
Fe2020     O2027   2.092       .  S
Fe2020     O2031   2.067       .  S
Fe2020     O2036   2.108       .  S
Fe2020     O2030   1.951   1_455  S
Fe2021     O2039   2.102       .  S
Fe2021     O2026   2.043       .  S
Fe2021     O2033   2.072       .  S
Fe2021     O2022   2.082       .  S
Fe2021     O2030   1.939       .  S
O2022      C2029   1.275       .  A
O2023      C2037   1.269   1_455  A
O2024      C2029   1.267       .  A
O2025      C2028   1.275       .  A
O2026      C2038   1.265       .  A
O2027      C2040   1.275       .  A
C2028      O2033   1.272       .  A
C2028      C3121   1.502       .  S
C2029      C3102   1.474       .  S
O2031      C2034   1.272       .  A
O2032      C2034   1.276       .  A
C2034      C3177   1.498       .  S
O2035      C2040   1.269       .  A
O2036      C2038   1.275   1_455  A
C2037      O2039   1.276       .  A
C2037      C3214   1.483       .  S
C2038      C3298   1.477       .  S
C2040      C3149   1.484       .  S
Fe2041     O2057   2.032       .  S
Fe2041     O2047   2.060       .  S
Fe2041     O2054   2.071       .  S
Fe2041     O2046   2.035       .  S
Fe2041     O2052   1.954       .  S
Fe2042     O2045   2.034       .  S
Fe2042     O2049   2.139       .  S
Fe2042     O2053   2.049       .  S
Fe2042     O2058   2.126       .  S
Fe2042     O2052   1.954       .  S
Fe2043     O2061   2.131       .  S
Fe2043     O2048   2.039       .  S
Fe2043     O2055   2.057       .  S
Fe2043     O2044   2.141       .  S
Fe2043     O2052   1.955       .  S
O2044      C2051   1.288       .  A
O2045      C2059   1.262       .  A
O2046      C2051   1.272       .  A
O2047      C2050   1.264       .  A
O2048      C2060   1.264       .  A
O2049      C2062   1.287       .  A
C2050      O2055   1.263       .  A
C2050      C3009   1.481       .  S
C2051      C3270   1.504       .  S
O2053      C2056   1.260       .  A
O2054      C2056   1.265       .  A
C2056      C3233   1.480       .  S
O2057      C2062   1.269       .  A
O2058      C2060   1.281       .  A
C2059      O2061   1.281       .  A
C2059      C3065   1.489       .  S
C2060      C3046   1.486       .  S
C2062      C2981   1.487       .  S
Fe2063     O2079   2.040       .  S
Fe2063     O2069   2.075       .  S
Fe2063     O2076   2.076   1_565  S
Fe2063     O2068   2.036   1_565  S
Fe2063     O2074   1.951       .  S
Fe2064     O2067   2.037   1_545  S
Fe2064     O2071   2.130   1_545  S
Fe2064     O2075   2.045       .  S
Fe2064     O2080   2.116       .  S
Fe2064     O2074   1.949   1_545  S
Fe2065     O2083   2.128       .  S
Fe2065     O2070   2.022   1_565  S
Fe2065     O2077   2.045       .  S
Fe2065     O2066   2.138   1_565  S
Fe2065     O2074   1.949       .  S
O2066      C2073   1.287       .  A
O2067      C2081   1.264       .  A
O2068      C2073   1.270       .  A
O2069      C2072   1.267       .  A
O2070      C2082   1.261       .  A
O2071      C2084   1.286       .  A
C2072      O2077   1.261       .  A
C2072      C3158   1.485       .  S
C2073      C2925   1.492       .  S
O2075      C2078   1.261       .  A
O2076      C2078   1.267       .  A
C2078      C2962   1.485       .  S
O2079      C2084   1.271       .  A
O2080      C2082   1.278       .  A
C2081      O2083   1.282       .  A
C2081      C3037   1.484       .  S
C2082      C2906   1.481       .  S
C2084      C3186   1.486       .  S
Fe2085     O2101   2.041       .  S
Fe2085     O2091   2.077       .  S
Fe2085     O2098   2.081       .  S
Fe2085     O2096   1.955       .  S
Fe2086     O2089   2.028       .  S
Fe2086     O2093   2.141       .  S
Fe2086     O2097   2.040       .  S
Fe2086     O2102   2.126       .  S
Fe2086     O2096   1.944       .  S
Fe2087     O2099   2.036       .  S
Fe2087     O2088   2.143       .  S
O2088      C2095   1.290       .  A
O2089      C2103   1.260       .  A
O2090      C2095   1.275   1_554  A
O2092      C2104   1.262       .  A
O2093      C2106   1.292       .  A
C2094      O2099   1.258       .  A
C2094      C2822   1.479       .  S
C2095      C2850   1.501       .  S
O2097      C2100   1.257       .  A
O2098      C2100   1.265       .  A
C2100      C2878   1.482       .  S
O2101      C2106   1.275       .  A
O2102      C2104   1.281       .  A
C2103      O2105   1.280       .  A
C2103      C3074   1.483       .  S
C2104      C2897   1.490       .  S
C2106      C2794   1.490       .  S
Fe2107     O2123   2.040   1_565  S
Fe2107     O2113   2.100       .  S
Fe2107     O2120   2.093   1_565  S
Fe2107     O2112   2.046       .  S
Fe2107     O2118   1.932       .  S
Fe2108     O2111   2.035       .  S
Fe2108     O2115   2.086       .  S
Fe2108     O2119   2.064       .  S
Fe2108     O2124   2.106       .  S
Fe2108     O2118   1.939   1_545  S
Fe2109     O2127   2.115       .  S
Fe2109     O2114   2.040       .  S
Fe2109     O2121   2.075       .  S
Fe2109     O2110   2.095       .  S
Fe2109     O2118   1.947       .  S
O2110      C2117   1.275       .  A
O2111      C2125   1.264   1_545  A
O2112      C2117   1.268       .  A
O2113      C2116   1.276       .  A
O2114      C2126   1.269       .  A
O2115      C2128   1.275       .  A
C2116      O2121   1.274       .  A
C2116      C2710   1.503       .  S
C2117      C2673   1.467       .  S
O2119      C2122   1.270       .  A
O2120      C2122   1.273       .  A
C2122      C3597   1.493       .  S
O2123      C2128   1.271       .  A
O2124      C2126   1.277   1_545  A
C2125      O2127   1.276       .  A
C2125      C2729   1.484   1_565  S
C2126      C2757   1.487       .  S
C2128      C3634   1.479       .  S
Fe2129     O2145   2.045   1_556  S
Fe2129     O2135   2.076       .  S
Fe2129     O2142   2.086       .  S
Fe2129     O2134   2.040       .  S
Fe2129     O2140   1.955       .  S
Fe2130     O2133   2.049       .  S
Fe2130     O2137   2.095       .  S
Fe2130     O2141   2.082       .  S
Fe2130     O2146   2.103       .  S
Fe2130     O2140   1.957       .  S
Fe2131     O2149   2.098       .  S
Fe2131     O2136   2.054       .  S
Fe2131     O2132   2.092       .  S
Fe2131     O2140   1.961       .  S
O2132      C2139   1.278       .  A
O2133      C2147   1.268       .  A
O2134      C2139   1.270       .  A
O2136      C2148   1.269       .  A
O2137      C2150   1.279   1_556  A
C2138      O2143   1.271       .  A
C2138      C2990   1.500       .  S
C2139      C3018   1.470       .  S
O2141      C2144   1.270       .  A
O2142      C2144   1.269       .  A
C2144      C2654   1.504       .  S
O2145      C2150   1.271       .  A
O2146      C2148   1.278       .  A
C2147      O2149   1.275       .  A
C2148      C2589   1.495       .  S
Fe2151     O2167   2.046       .  S
Fe2151     O2157   2.074       .  S
Fe2151     O2164   2.086       .  S
Fe2151     O2156   2.054       .  S
Fe2151     O2162   1.934       .  S
Fe2152     O2155   2.049       .  S
Fe2152     O2159   2.088       .  S
Fe2152     O2163   2.082       .  S
Fe2152     O2168   2.117       .  S
Fe2152     O2162   1.943       .  S
Fe2153     O2171   2.113       .  S
Fe2153     O2158   2.034       .  S
Fe2153     O2165   2.075       .  S
Fe2153     O2154   2.090       .  S
Fe2153     O2162   1.934       .  S
O2154      C2161   1.277       .  A
O2155      C2169   1.266       .  A
O2156      C2161   1.272       .  A
O2157      C2160   1.271       .  A
O2158      C2170   1.263       .  A
O2159      C2172   1.277       .  A
C2160      O2165   1.272       .  A
C2160      C3401   1.492       .  S
C2161      C3429   1.483       .  S
O2163      C2166   1.275       .  A
O2164      C2166   1.271       .  A
C2166      C2785   1.504       .  S
O2167      C2172   1.270       .  A
O2168      C2170   1.278       .  A
C2169      O2171   1.277       .  A
C2169      C2598   1.483       .  S
C2170      C2738   1.489       .  S
C2172      C2813   1.479       .  S
Fe2173     O2189   2.054       .  S
Fe2173     O2179   2.089       .  S
Fe2173     O2186   2.097       .  S
Fe2173     O2178   2.046       .  S
Fe2173     O2184   1.938       .  S
Fe2174     O2177   2.044       .  S
Fe2174     O2181   2.071       .  S
Fe2174     O2185   2.085       .  S
Fe2174     O2190   2.096       .  S
Fe2174     O2184   1.941       .  S
Fe2175     O2193   2.125       .  S
Fe2175     O2180   2.056       .  S
Fe2175     O2187   2.085       .  S
Fe2175     O2176   2.096       .  S
Fe2175     O2184   1.952       .  S
O2176      C2183   1.278       .  A
O2177      C2191   1.266       .  A
O2178      C2183   1.270       .  A
O2179      C2182   1.273       .  A
O2180      C2192   1.269       .  A
O2181      C2194   1.273       .  A
C2182      O2187   1.274       .  A
C2182      C2841   1.505       .  S
C2183      C2869   1.462       .  S
O2185      C2188   1.275       .  A
O2186      C2188   1.275       .  A
C2188      C2514   1.508       .  S
O2189      C2194   1.270       .  A
O2190      C2192   1.275       .  A
C2191      O2193   1.279       .  A
C2191      C2570   1.486       .  S
C2192      C2542   1.481       .  S
C2194      C2477   1.472       .  S
Fe2195     O2211   2.042       .  S
Fe2195     O2201   2.082       .  S
Fe2195     O2208   2.075       .  S
Fe2195     O2200   2.043       .  S
Fe2195     O2206   1.945       .  S
Fe2196     O2199   2.055       .  S
Fe2196     O2203   2.101       .  S
Fe2196     O2207   2.073       .  S
Fe2196     O2212   2.105       .  S
Fe2196     O2206   1.952       .  S
Fe2197     O2215   2.093       .  S
Fe2197     O2202   2.042       .  S
Fe2197     O2209   2.068       .  S
Fe2197     O2198   2.094       .  S
Fe2197     O2206   1.952       .  S
O2198      C2205   1.277       .  A
O2199      C2213   1.269       .  A
O2200      C2205   1.270       .  A
O2201      C2204   1.270       .  A
O2202      C2214   1.267       .  A
O2203      C2216   1.280       .  A
C2204      O2209   1.267       .  A
C2204      C3541   1.497       .  S
C2205      C3578   1.473       .  S
O2207      C2210   1.268       .  A
O2208      C2210   1.268       .  A
C2210      C2934   1.498       .  S
O2211      C2216   1.271       .  A
O2212      C2214   1.278       .  A
C2213      O2215   1.274       .  A
C2213      C2533   1.484       .  S
C2214      C2458   1.489       .  S
C2216      C2953   1.477       .  S
Fe2217     O2233   2.057       .  S
Fe2217     O2223   2.078       .  S
Fe2217     O2230   2.082       .  S
Fe2217     O2222   2.046   1_556  S
Fe2217     O2228   1.933       .  S
Fe2218     O2221   2.035       .  S
Fe2218     O2225   2.078       .  S
Fe2218     O2234   2.094       .  S
Fe2218     O2228   1.937       .  S
Fe2219     O2237   2.130       .  S
Fe2219     O2224   2.061       .  S
Fe2219     O2231   2.099       .  S
Fe2219     O2220   2.107       .  S
Fe2219     O2228   1.951       .  S
O2220      C2227   1.278   1_556  A
O2221      C2235   1.261       .  A
O2222      C2227   1.270       .  A
O2223      C2226   1.271       .  A
O2224      C2236   1.272       .  A
O2225      C2238   1.274       .  A
C2226      O2231   1.279       .  A
C2226      C3718   1.499       .  S
O2229      C2232   1.272       .  A
C2232      C2421   1.502       .  S
O2233      C2238   1.270       .  A
O2234      C2236   1.274       .  A
C2235      O2237   1.279       .  A
C2235      C2561   1.493       .  S
C2238      C2402   1.482       .  S
Fe2239     O2255   2.046       .  S
Fe2239     O2245   2.076       .  S
Fe2239     O2252   2.084       .  S
Fe2239     O2244   2.047       .  S
Fe2239     O2250   1.955       .  S
Fe2240     O2243   2.019       .  S
Fe2240     O2247   2.147       .  S
Fe2240     O2251   2.043       .  S
Fe2240     O2256   2.130       .  S
Fe2240     O2250   1.945       .  S
Fe2241     O2259   2.123       .  S
Fe2241     O2246   2.036       .  S
Fe2241     O2253   2.044       .  S
Fe2241     O2242   2.135       .  S
Fe2241     O2250   1.945       .  S
O2242      C2249   1.289       .  A
O2243      C2257   1.261       .  A
O2244      C2249   1.277       .  A
O2245      C2248   1.264       .  A
O2246      C2258   1.261       .  A
O2247      C2260   1.290       .  A
C2248      O2253   1.259       .  A
C2248      C2617   1.480       .  S
C2249      C2430   1.494       .  S
O2251      C2254   1.260       .  A
O2252      C2254   1.266       .  A
C2254      C2393   1.483       .  S
O2255      C2260   1.274       .  A
O2256      C2258   1.281       .  A
C2257      O2259   1.281       .  A
C2257      C2337   1.478       .  S
C2258      C2374   1.489       .  S
C2260      C2645   1.492       .  S
Fe2261     O2277   2.033       .  S
Fe2261     O2267   2.064       .  S
Fe2261     O2274   2.070       .  S
Fe2261     O2266   2.043       .  S
Fe2261     O2272   1.957       .  S
Fe2262     O2265   2.035       .  S
Fe2262     O2278   2.129       .  S
Fe2262     O2272   1.957       .  S
Fe2263     O2281   2.130       .  S
Fe2263     O2268   2.032       .  S
Fe2263     O2275   2.053       .  S
Fe2263     O2264   2.154       .  S
Fe2263     O2272   1.958       .  S
O2264      C2271   1.292       .  A
O2265      C2279   1.262       .  A
O2266      C2271   1.274       .  A
O2267      C2270   1.264       .  A
O2268      C2280   1.262       .  A
O2269      C2282   1.284       .  A
C2270      O2275   1.260       .  A
C2270      C3326   1.487       .  S
C2271      C2505   1.510       .  S
O2273      C2276   1.262       .  A
C2276      C2486   1.473       .  S
O2278      C2280   1.282       .  A
C2279      O2281   1.282       .  A
C2279      C2309   1.487       .  S
C2280      C2365   1.485       .  S
C2282      C3345   1.490       .  S
Fe2283     O2299   2.036       .  S
Fe2283     O2289   2.078       .  S
Fe2283     O2296   2.074       .  S
Fe2283     O2288   2.040       .  S
Fe2283     O2294   1.941       .  S
Fe2284     O2287   2.010       .  S
Fe2284     O2291   2.142       .  S
Fe2284     O2295   2.040       .  S
Fe2284     O2300   2.141       .  S
Fe2284     O2294   1.934       .  S
Fe2285     O2303   2.149       .  S
Fe2285     O2290   2.000       .  S
Fe2285     O2297   2.046       .  S
Fe2285     O2286   2.147       .  S
Fe2285     O2294   1.920       .  S
O2286      C2293   1.292       .  A
O2287      C2301   1.259       .  A
O2288      C2293   1.272       .  A
O2289      C2292   1.267       .  A
O2290      C2302   1.255       .  A
O2291      C2304   1.290       .  A
C2292      O2297   1.260       .  A
C2292      C3093   1.483       .  S
C2293      C2701   1.498       .  S
O2295      C2298   1.261       .  A
O2296      C2298   1.265       .  A
C2298      C2682   1.476       .  S
O2299      C2304   1.271       .  A
O2300      C2302   1.282       .  A
C2301      O2303   1.287       .  A
C2301      C2318   1.484       .  S
C2302      C2346   1.491       .  S
C2304      C3130   1.483       .  S
C2305      C2306   1.401       .  A
C2305      C2310   1.404       .  A
C2305      H2315   1.082       .  S
C2306      C2311   1.492       .  S
C2306      C2307   1.413       .  A
C2307      N2312   1.429       .  S
C2308      C2309   1.404       .  A
C2308      H2313   1.083       .  S
C2310      N2314   1.428       .  S
C2311      C2316   1.406       .  A
C2311      C2320   1.405       .  A
N2312      O2328   1.262   1_556  A
N2314      O2325   1.262       .  A
C2316      C2317   1.407       .  A
C2316      N2321   1.429       .  S
C2317      C2318   1.410       .  A
C2317      H2322   1.068       .  S
C2318      C2319   1.413       .  A
C2319      C2320   1.409       .  A
C2319      N2323   1.430       .  S
C2320      H2324   1.078       .  S
N2321      O2331   1.261       .  A
N2323      O2329   1.262       .  A
N2323      O2330   1.262       .  A
C2333      C2334   1.404       .  A
C2333      C2338   1.394       .  A
C2333      H2343   1.084       .  S
C2334      C2339   1.494       .  S
C2334      C2335   1.415       .  A
C2335      C2336   1.413       .  A
C2335      N2340   1.428       .  S
C2336      C2337   1.405       .  A
C2336      H2341   1.082       .  S
C2337      C2338   1.409       .  A
C2338      N2342   1.430       .  S
C2339      C2344   1.419       .  A
C2339      C2348   1.395       .  A
N2340      O2355   1.262       .  A
N2340      O2356   1.262       .  A
N2342      O2353   1.262       .  A
N2342      O2354   1.262       .  A
C2344      C2345   1.419       .  A
C2344      N2349   1.429       .  S
C2345      C2346   1.407       .  A
C2345      H2350   1.082       .  S
C2346      C2347   1.421       .  A
C2347      C2348   1.386       .  A
C2347      N2351   1.432       .  S
C2348      H2352   1.083       .  S
N2349      O2359   1.262       .  A
N2349      O2360   1.262       .  A
N2351      O2357   1.261       .  A
N2351      O2358   1.262       .  A
C2361      C2362   1.405       .  A
C2361      C2366   1.406       .  A
C2361      H2371   1.083       .  S
C2362      C2367   1.501       .  S
C2362      C2363   1.413       .  A
C2363      C2364   1.411       .  A
C2363      N2368   1.428       .  S
C2364      C2365   1.406       .  A
C2364      H2369   1.083       .  S
C2365      C2366   1.412       .  A
C2366      N2370   1.429       .  S
C2367      C2372   1.415       .  A
C2367      C2376   1.403       .  A
N2368      O2383   1.262       .  A
N2368      O2384   1.262       .  A
N2370      O2381   1.262       .  A
N2370      O2382   1.262       .  A
C2372      C2373   1.409       .  A
C2372      N2377   1.429       .  S
C2373      C2374   1.403       .  A
C2373      H2378   1.081       .  S
C2374      C2375   1.416       .  A
C2375      C2376   1.409       .  A
C2375      N2379   1.429       .  S
C2376      H2380   1.083       .  S
N2377      O2387   1.262       .  A
N2377      O2388   1.262       .  A
N2379      O2385   1.262       .  A
N2379      O2386   1.262       .  A
C2389      C2390   1.400       .  A
C2389      C2394   1.401       .  A
C2389      H2399   1.084       .  S
C2390      C2395   1.479       .  S
C2390      C2391   1.409       .  A
C2391      C2392   1.398       .  A
C2391      N2396   1.431       .  S
C2392      C2393   1.406       .  A
C2392      H2397   1.084       .  S
C2393      C2394   1.415       .  A
C2394      N2398   1.428       .  S
C2395      C2400   1.409       .  A
C2395      C2404   1.402       .  A
N2396      O2411   1.262       .  A
N2396      O2412   1.262       .  A
N2398      O2409   1.262       .  A
N2398      O2410   1.262       .  A
C2400      C2401   1.396       .  A
C2400      N2405   1.432       .  S
C2401      C2402   1.405       .  A
C2401      H2406   1.083       .  S
C2402      C2403   1.414       .  A
C2403      C2404   1.403       .  A
C2403      N2407   1.429       .  S
C2404      H2408   1.083       .  S
N2405      O2415   1.262       .  A
N2405      O2416   1.262       .  A
N2407      O2413   1.262       .  A
N2407      O2414   1.262       .  A
C2417      C2418   1.404       .  A
C2417      C2422   1.407       .  A
C2417      H2427   1.084       .  S
C2418      C2423   1.493       .  S
C2418      C2419   1.408       .  A
C2419      C2420   1.404       .  A
C2419      N2424   1.429       .  S
C2420      C2421   1.411       .  A
C2420      H2425   1.083       .  S
C2421      C2422   1.418       .  A
C2423      C2428   1.407       .  A
C2423      C2432   1.407       .  A
N2424      O2439   1.262       .  A
N2424      O2440   1.262       .  A
N2426      O2437   1.262       .  A
N2426      O2438   1.262       .  A
C2428      C2429   1.400       .  A
C2428      N2433   1.429       .  S
C2429      C2430   1.408       .  A
C2429      H2434   1.084       .  S
C2430      C2431   1.414       .  A
C2431      C2432   1.411       .  A
C2431      N2435   1.428       .  S
C2432      H2436   1.083       .  S
N2433      O2443   1.262       .  A
N2433      O2444   1.262       .  A
N2435      O2441   1.262       .  A
N2435      O2442   1.262       .  A
C2445      C2446   1.405       .  A
C2445      C2450   1.401       .  A
C2445      H2455   1.080       .  S
C2446      C2451   1.485       .  S
C2446      C2447   1.407       .  A
C2447      C2448   1.407       .  A
C2447      N2452   1.430       .  S
C2448      C2449   1.410       .  A
C2448      H2453   1.069       .  S
C2449      C2450   1.409       .  A
C2450      N2454   1.429       .  S
C2451      C2456   1.410       .  A
C2451      C2460   1.400       .  A
N2452      O2467   1.262       .  A
N2452      O2468   1.262       .  A
N2454      O2465   1.261       .  A
N2454      O2466   1.262       .  A
C2456      C2457   1.408       .  A
C2457      C2458   1.408       .  A
C2457      H2462   1.083       .  S
C2458      C2459   1.417       .  A
C2459      C2460   1.397       .  A
C2459      N2463   1.431       .  S
C2460      H2464   1.084       .  S
N2461      O2471   1.262       .  A
N2461      O2472   1.262       .  A
N2463      O2469   1.262       .  A
N2463      O2470   1.262       .  A
C2473      C2474   1.401       .  A
C2473      C2478   1.400       .  A
C2473      H2483   1.082       .  S
C2474      C2479   1.468       .  S
C2474      C2475   1.406       .  A
C2475      C2476   1.393       .  A
C2475      N2480   1.430       .  S
C2476      C2477   1.404       .  A
C2476      H2481   1.083       .  S
C2477      C2478   1.411       .  A
C2478      N2482   1.429       .  S
C2479      C2484   1.407       .  A
C2479      C2488   1.396       .  A
N2480      O2495   1.262       .  A
N2480      O2496   1.262       .  A
N2482      O2493   1.262       .  A
N2482      O2494   1.262       .  A
C2484      C2485   1.400       .  A
C2484      N2489   1.429       .  S
C2485      C2486   1.404       .  A
C2486      C2487   1.414       .  A
C2487      C2488   1.394       .  A
C2487      N2491   1.429       .  S
C2488      H2492   1.083       .  S
N2489      O2500   1.262       .  A
N2491      O2497   1.262       .  A
N2491      O2498   1.261       .  A
C2501      C2502   1.411       .  A
C2501      C2506   1.418       .  A
C2501      H2511   1.082       .  S
C2502      C2507   1.505       .  S
C2502      C2503   1.407       .  A
C2503      C2504   1.401       .  A
C2503      N2508   1.429       .  S
C2504      C2505   1.412       .  A
C2504      H2509   1.082       .  S
C2505      C2506   1.417       .  A
C2506      N2510   1.428       .  S
C2507      C2512   1.409       .  A
C2507      C2516   1.409       .  A
N2508      O2523   1.262       .  A
N2508      O2524   1.262       .  A
N2510      O2521   1.262       .  A
N2510      O2522   1.262       .  A
C2512      C2513   1.407       .  A
C2512      N2517   1.428       .  S
C2513      C2514   1.413       .  A
C2513      H2518   1.082       .  S
C2514      C2515   1.416       .  A
C2515      C2516   1.412       .  A
C2515      N2519   1.428       .  S
C2516      H2520   1.082       .  S
N2517      O2527   1.262       .  A
N2517      O2528   1.262       .  A
N2519      O2525   1.262       .  A
N2519      O2526   1.262       .  A
C2529      C2530   1.402       .  A
C2529      C2534   1.400       .  A
C2529      H2539   1.084       .  S
C2530      C2535   1.482       .  S
C2530      C2531   1.408       .  A
C2531      C2532   1.406       .  A
C2531      N2536   1.429       .  S
C2532      C2533   1.407       .  A
C2532      H2537   1.084       .  S
C2533      C2534   1.412       .  A
C2534      N2538   1.430       .  S
C2535      C2540   1.407       .  A
C2535      C2544   1.403       .  A
N2536      O2551   1.262       .  A
N2536      O2552   1.262       .  A
N2538      O2549   1.262       .  A
N2538      O2550   1.262       .  A
C2540      C2541   1.405       .  A
C2540      N2545   1.429       .  S
C2541      C2542   1.408       .  A
C2541      H2546   1.075       .  S
C2542      C2543   1.409       .  A
C2543      C2544   1.400       .  A
C2543      N2547   1.428       .  S
C2544      H2548   1.082       .  S
N2545      O2555   1.262       .  A
N2545      O2556   1.261       .  A
N2547      O2553   1.262       .  A
N2547      O2554   1.262       .  A
C2557      C2558   1.397       .  A
C2557      C2562   1.395       .  A
C2557      H2567   1.083       .  S
C2558      C2563   1.490       .  S
C2558      C2559   1.411       .  A
C2559      C2560   1.414       .  A
C2559      N2564   1.427       .  S
C2560      C2561   1.407       .  A
C2560      H2565   1.082       .  S
C2561      C2562   1.420       .  A
C2562      N2566   1.431       .  S
C2563      C2568   1.407       .  A
C2563      C2572   1.410       .  A
N2564      O2579   1.262       .  A
N2564      O2580   1.261       .  A
N2566      O2577   1.262       .  A
N2566      O2578   1.262       .  A
C2568      C2569   1.392       .  A
C2568      N2573   1.430       .  S
C2569      C2570   1.404       .  A
C2569      H2574   1.085       .  S
C2570      C2571   1.411       .  A
C2571      C2572   1.416       .  A
C2571      N2575   1.428       .  S
C2572      H2576   1.083       .  S
N2573      O2583   1.262       .  A
N2573      O2584   1.262       .  A
N2575      O2581   1.262       .  A
N2575      O2582   1.261       .  A
C2585      C2586   1.401       .  A
C2585      C2590   1.400       .  A
C2585      H2595   1.084       .  S
C2586      C2591   1.490   1_565  S
C2586      C2587   1.410       .  A
C2587      C2588   1.410       .  A
C2587      N2592   1.428       .  S
C2588      C2589   1.410       .  A
C2588      H2593   1.084       .  S
C2589      C2590   1.417       .  A
C2590      N2594   1.430       .  S
C2591      C2596   1.411       .  A
C2591      C2600   1.405       .  A
N2592      O2607   1.262       .  A
N2592      O2608   1.262       .  A
N2594      O2605   1.262       .  A
N2594      O2606   1.262       .  A
C2596      C2597   1.409       .  A
C2596      N2601   1.430   1_545  S
C2597      C2598   1.408       .  A
C2597      H2602   1.083       .  S
C2598      C2599   1.409       .  A
C2599      C2600   1.401       .  A
C2599      N2603   1.429       .  S
C2600      H2604   1.083       .  S
N2601      O2611   1.262       .  A
N2601      O2612   1.262   1_565  A
N2603      O2609   1.262       .  A
N2603      O2610   1.262       .  A
C2613      C2614   1.404       .  A
C2613      C2618   1.400       .  A
C2613      H2623   1.083       .  S
C2614      C2619   1.482       .  S
C2614      C2615   1.407       .  A
C2615      C2616   1.398       .  A
C2615      N2620   1.429       .  S
C2616      C2617   1.407       .  A
C2616      H2621   1.084       .  S
C2617      C2618   1.412       .  A
C2618      N2622   1.430       .  S
C2619      C2624   1.408       .  A
C2619      C2628   1.405       .  A
N2620      O2635   1.262       .  A
N2620      O2636   1.262       .  A
N2622      O2633   1.262       .  A
N2622      O2634   1.262       .  A
C2624      C2625   1.394       .  A
C2624      N2629   1.430       .  S
C2625      C2626   1.405       .  A
C2626      C2627   1.412       .  A
C2627      C2628   1.404       .  A
C2627      N2631   1.428       .  S
C2628      H2632   1.082       .  S
N2629      O2639   1.262       .  A
N2629      O2640   1.262       .  A
N2631      O2637   1.261       .  A
N2631      O2638   1.262       .  A
C2641      C2642   1.405       .  A
C2641      C2646   1.405       .  A
C2641      H2651   1.082       .  S
C2642      C2647   1.507       .  S
C2642      C2643   1.418       .  A
C2643      C2644   1.412       .  A
C2643      N2648   1.429       .  S
C2644      C2645   1.404       .  A
C2644      H2649   1.083       .  S
C2645      C2646   1.413       .  A
C2646      N2650   1.429       .  S
C2647      C2652   1.415       .  A
C2647      C2656   1.406       .  A
N2648      O2663   1.262       .  A
N2648      O2664   1.262       .  A
N2650      O2661   1.261       .  A
N2650      O2662   1.261       .  A
C2652      C2653   1.409       .  A
C2652      N2657   1.430       .  S
C2653      C2654   1.408       .  A
C2653      H2658   1.083       .  S
C2654      C2655   1.418       .  A
C2655      C2656   1.408       .  A
C2655      N2659   1.429       .  S
C2656      H2660   1.082       .  S
N2657      O2667   1.262       .  A
N2657      O2668   1.262       .  A
N2659      O2665   1.262       .  A
N2659      O2666   1.262       .  A
C2669      C2670   1.400       .  A
C2669      C2674   1.398       .  A
C2670      C2671   1.410       .  A
C2671      C2672   1.400       .  A
C2671      N2676   1.430       .  S
C2672      C2673   1.401       .  A
C2672      H2677   1.083       .  S
C2673      C2674   1.409       .  A
C2674      N2678   1.429       .  S
C2675      C2680   1.407       .  A
C2675      C2684   1.400       .  A
N2676      O2691   1.262       .  A
N2676      O2692   1.262       .  A
N2678      O2690   1.262       .  A
C2680      C2681   1.397       .  A
C2680      N2685   1.430       .  S
C2681      C2682   1.406       .  A
C2681      H2686   1.083       .  S
C2682      C2683   1.414       .  A
C2683      C2684   1.395       .  A
C2683      N2687   1.429       .  S
N2685      O2695   1.262       .  A
N2685      O2696   1.262       .  A
N2687      O2693   1.262       .  A
N2687      O2694   1.262       .  A
C2697      C2698   1.401       .  A
C2697      C2702   1.406       .  A
C2697      H2707   1.084       .  S
C2698      C2703   1.496       .  S
C2698      C2699   1.413       .  A
C2699      C2700   1.410       .  A
C2699      N2704   1.428       .  S
C2700      C2701   1.405       .  A
C2700      H2705   1.083       .  S
C2701      C2702   1.421       .  A
C2702      N2706   1.431       .  S
C2703      C2708   1.412       .  A
C2703      C2712   1.401       .  A
N2704      O2719   1.262       .  A
N2704      O2720   1.261       .  A
N2706      O2717   1.262       .  A
N2706      O2718   1.262       .  A
C2708      C2709   1.410       .  A
C2708      N2713   1.429       .  S
C2709      C2710   1.410       .  A
C2709      H2714   1.083       .  S
C2710      C2711   1.418       .  A
C2711      C2712   1.405       .  A
C2711      N2715   1.429       .  S
C2712      H2716   1.084       .  S
N2713      O2723   1.262       .  A
N2713      O2724   1.262       .  A
N2715      O2721   1.262       .  A
N2715      O2722   1.262       .  A
C2725      C2726   1.409       .  A
C2725      C2730   1.414   1_545  A
C2725      H2735   1.083   1_545  S
C2726      C2731   1.487       .  S
C2726      C2727   1.409       .  A
C2727      C2728   1.391       .  A
C2727      N2732   1.432       .  S
C2728      C2729   1.403       .  A
C2728      H2733   1.084       .  S
C2729      C2730   1.411   1_545  A
C2730      N2734   1.428       .  S
C2731      C2736   1.410       .  A
C2731      C2740   1.396       .  A
N2732      O2747   1.262       .  A
N2732      O2748   1.262       .  A
N2734      O2745   1.262       .  A
N2734      O2746   1.262       .  A
C2736      C2737   1.412       .  A
C2736      N2741   1.427       .  S
C2737      C2738   1.409       .  A
C2737      H2742   1.084       .  S
C2738      C2739   1.421       .  A
C2739      C2740   1.390       .  A
C2739      N2743   1.433       .  S
C2740      H2744   1.085       .  S
N2741      O2751   1.262   1_545  A
N2741      O2752   1.262       .  A
N2743      O2749   1.262       .  A
N2743      O2750   1.262       .  A
C2753      C2754   1.400       .  A
C2753      C2758   1.405       .  A
C2753      H2763   1.084       .  S
C2754      C2759   1.480       .  S
C2754      C2755   1.409       .  A
C2755      C2756   1.397       .  A
C2755      N2760   1.433       .  S
C2756      C2757   1.407       .  A
C2756      H2761   1.084       .  S
C2757      C2758   1.417       .  A
C2758      N2762   1.432   1_565  S
C2759      C2764   1.409       .  A
C2759      C2768   1.397       .  A
N2760      O2775   1.262       .  A
N2760      O2776   1.262       .  A
N2762      O2773   1.262       .  A
N2762      O2774   1.262       .  A
C2764      C2765   1.399       .  A
C2764      N2769   1.431       .  S
C2765      C2766   1.405       .  A
C2765      H2770   1.083       .  S
C2767      N2771   1.428   1_554  S
N2769      O2779   1.262       .  A
N2769      O2780   1.262       .  A
N2771      O2777   1.261       .  A
N2771      O2778   1.262       .  A
C2781      C2782   1.403       .  A
C2781      C2786   1.405       .  A
C2781      H2791   1.083       .  S
C2782      C2787   1.501       .  S
C2782      C2783   1.414       .  A
C2783      C2784   1.407       .  A
C2783      N2788   1.429       .  S
C2784      C2785   1.408       .  A
C2784      H2789   1.083       .  S
C2785      C2786   1.422       .  A
C2786      N2790   1.429       .  S
C2787      C2792   1.417       .  A
C2787      C2796   1.403       .  A
N2788      O2803   1.262       .  A
N2788      O2804   1.262       .  A
N2790      O2801   1.262       .  A
N2790      O2802   1.262       .  A
C2792      C2793   1.409       .  A
C2792      N2797   1.428       .  S
C2793      C2794   1.403       .  A
C2793      H2798   1.083       .  S
C2794      C2795   1.416       .  A
C2795      C2796   1.402       .  A
C2795      N2799   1.431       .  S
C2796      H2800   1.083       .  S
N2797      O2807   1.262       .  A
N2797      O2808   1.261       .  A
N2799      O2805   1.262       .  A
N2799      O2806   1.262       .  A
C2809      C2810   1.401       .  A
C2809      C2814   1.396       .  A
C2809      H2819   1.084       .  S
C2810      C2815   1.478       .  S
C2810      C2811   1.413       .  A
C2811      C2812   1.399       .  A
C2811      N2816   1.433       .  S
C2812      C2813   1.404       .  A
C2812      H2817   1.083       .  S
C2813      C2814   1.414       .  A
C2814      N2818   1.430       .  S
C2815      C2820   1.409       .  A
C2815      C2824   1.402       .  A
N2816      O2831   1.262       .  A
N2816      O2832   1.262       .  A
N2818      O2829   1.262       .  A
N2818      O2830   1.262       .  A
C2820      C2821   1.399       .  A
C2820      N2825   1.432       .  S
C2821      C2822   1.407       .  A
C2821      H2826   1.083       .  S
C2822      C2823   1.412       .  A
C2823      C2824   1.395       .  A
C2823      N2827   1.429       .  S
C2824      H2828   1.083       .  S
N2825      O2835   1.262       .  A
N2825      O2836   1.262       .  A
N2827      O2833   1.262       .  A
N2827      O2834   1.262       .  A
C2837      C2838   1.403       .  A
C2837      C2842   1.409       .  A
C2837      H2847   1.084       .  S
C2838      C2843   1.492       .  S
C2838      C2839   1.407       .  A
C2839      C2840   1.406       .  A
C2839      N2844   1.429       .  S
C2840      C2841   1.413       .  A
C2840      H2845   1.083       .  S
C2841      C2842   1.418       .  A
C2842      N2846   1.428       .  S
C2843      C2848   1.404       .  A
C2843      C2852   1.407       .  A
N2844      O2859   1.262       .  A
N2844      O2860   1.262       .  A
N2846      O2857   1.262       .  A
N2846      O2858   1.262       .  A
C2848      C2849   1.399       .  A
C2848      N2853   1.429       .  S
C2849      C2850   1.411       .  A
C2849      H2854   1.083       .  S
C2850      C2851   1.416       .  A
C2851      C2852   1.414       .  A
C2851      N2855   1.428       .  S
C2852      H2856   1.083       .  S
N2853      O2863   1.262       .  A
N2853      O2864   1.262       .  A
N2855      O2861   1.262       .  A
N2855      O2862   1.262       .  A
C2865      C2866   1.403       .  A
C2865      C2870   1.396       .  A
C2865      H2875   1.084       .  S
C2866      C2871   1.477       .  S
C2866      C2867   1.411       .  A
C2867      C2868   1.403       .  A
C2867      N2872   1.430       .  S
C2868      C2869   1.401       .  A
C2868      H2873   1.084       .  S
C2869      C2870   1.405       .  A
C2870      N2874   1.429       .  S
C2871      C2876   1.410       .  A
C2871      C2880   1.398       .  A
N2872      O2887   1.262       .  A
N2872      O2888   1.262       .  A
N2874      O2885   1.262       .  A
N2874      O2886   1.262       .  A
C2876      C2877   1.404       .  A
C2876      N2881   1.430       .  S
C2877      C2878   1.406       .  A
C2877      H2882   1.083       .  S
C2878      C2879   1.415       .  A
C2879      C2880   1.395       .  A
C2879      N2883   1.429       .  S
C2880      H2884   1.084       .  S
N2881      O2891   1.262       .  A
N2881      O2892   1.262       .  A
N2883      O2889   1.262       .  A
N2883      O2890   1.262       .  A
C2893      C2894   1.408       .  A
C2893      H2903   1.083       .  S
C2894      C2899   1.488       .  S
C2894      C2895   1.406       .  A
C2895      C2896   1.399       .  A
C2895      N2900   1.431       .  S
C2896      H2901   1.084       .  S
C2897      C2898   1.410       .  A
C2898      N2902   1.429       .  S
C2899      C2904   1.417       .  A
C2899      C2908   1.399       .  A
N2900      O2915   1.262       .  A
N2900      O2916   1.262       .  A
N2902      O2913   1.262       .  A
N2902      O2914   1.262       .  A
C2904      C2905   1.409       .  A
C2904      N2909   1.432       .  S
C2905      C2906   1.402       .  A
C2905      H2910   1.083       .  S
C2906      C2907   1.415       .  A
C2907      C2908   1.398       .  A
C2907      N2911   1.430       .  S
C2908      H2912   1.084       .  S
N2909      O2919   1.262       .  A
N2909      O2920   1.262       .  A
N2911      O2917   1.262       .  A
N2911      O2918   1.261       .  A
C2921      H2931   1.082       .  S
C2922      C2923   1.408       .  A
C2923      C2924   1.401       .  A
C2923      N2928   1.429       .  S
C2924      C2925   1.408       .  A
C2924      H2929   1.083       .  S
C2925      C2926   1.410       .  A
C2927      C2932   1.405       .  A
N2928      O2943   1.262       .  A
N2928      O2944   1.262       .  A
N2930      O2941   1.262       .  A
C2932      C2933   1.401       .  A
C2932      N2937   1.429       .  S
C2933      C2934   1.411       .  A
C2933      H2938   1.082       .  S
C2934      C2935   1.418       .  A
C2935      N2939   1.428       .  S
C2936      H2940   1.082   1_554  S
N2937      O2947   1.262       .  A
N2937      O2948   1.262       .  A
N2939      O2945   1.262       .  A
C2949      C2950   1.404       .  A
C2949      C2954   1.397       .  A
C2949      H2959   1.084       .  S
C2950      C2955   1.481       .  S
C2950      C2951   1.410       .  A
C2951      C2952   1.401       .  A
C2951      N2956   1.432       .  S
C2952      C2953   1.405       .  A
C2952      H2957   1.084       .  S
C2953      C2954   1.410       .  A
C2954      N2958   1.429       .  S
C2955      C2960   1.412       .  A
C2955      C2964   1.401       .  A
N2956      O2971   1.262       .  A
N2956      O2972   1.262       .  A
N2958      O2969   1.262       .  A
N2958      O2970   1.262       .  A
C2960      C2961   1.401       .  A
C2960      N2965   1.431       .  S
C2961      C2962   1.407       .  A
C2961      H2966   1.082       .  S
C2962      C2963   1.415       .  A
C2963      C2964   1.397       .  A
C2963      N2967   1.429       .  S
C2964      H2968   1.083       .  S
N2965      O2975   1.262       .  A
N2965      O2976   1.262       .  A
N2967      O2973   1.262       .  A
N2967      O2974   1.262       .  A
C2977      C2978   1.412       .  A
C2977      C2982   1.411       .  A
C2977      H2987   1.081       .  S
C2978      C2983   1.500       .  S
C2978      C2979   1.412       .  A
C2979      C2980   1.400       .  A
C2979      N2984   1.430       .  S
C2980      C2981   1.406       .  A
C2980      H2985   1.083       .  S
C2981      C2982   1.408       .  A
C2982      N2986   1.428       .  S
C2983      C2988   1.411       .  A
C2983      C2992   1.407       .  A
N2984      O2999   1.262       .  A
N2984      O3000   1.262       .  A
N2986      O2997   1.262       .  A
N2986      O2998   1.261       .  A
C2988      C2989   1.403       .  A
C2988      N2993   1.429       .  S
C2989      C2990   1.409       .  A
C2989      H2994   1.082       .  S
C2990      C2991   1.417       .  A
C2991      C2992   1.407       .  A
C2991      N2995   1.429       .  S
C2992      H2996   1.081       .  S
N2993      O3003   1.262       .  A
N2993      O3004   1.262       .  A
N2995      O3001   1.262       .  A
N2995      O3002   1.262       .  A
C3005      C3006   1.401       .  A
C3005      C3010   1.397       .  A
C3005      H3015   1.084       .  S
C3006      C3011   1.474       .  S
C3006      C3007   1.408       .  A
C3007      C3008   1.398       .  A
C3007      N3012   1.431       .  S
C3008      C3009   1.408       .  A
C3008      H3013   1.083       .  S
C3009      C3010   1.412       .  A
C3010      N3014   1.428       .  S
C3011      C3016   1.409       .  A
C3011      C3020   1.402       .  A
N3012      O3027   1.262       .  A
N3012      O3028   1.262       .  A
N3014      O3025   1.262       .  A
N3014      O3026   1.262       .  A
C3016      C3017   1.399       .  A
C3016      N3021   1.431       .  S
C3017      C3018   1.405       .  A
C3017      H3022   1.084       .  S
C3018      C3019   1.408       .  A
C3019      C3020   1.395       .  A
C3019      N3023   1.430       .  S
C3020      H3024   1.084       .  S
N3021      O3031   1.262       .  A
N3021      O3032   1.262       .  A
N3023      O3029   1.262       .  A
N3023      O3030   1.262       .  A
C3033      C3034   1.406       .  A
C3033      C3038   1.406       .  A
C3033      H3043   1.084       .  S
C3034      C3039   1.500       .  S
C3034      C3035   1.413       .  A
C3035      C3036   1.408       .  A
C3035      N3040   1.429       .  S
C3036      C3037   1.406       .  A
C3036      H3041   1.084       .  S
C3037      C3038   1.410       .  A
C3038      N3042   1.428       .  S
C3039      C3044   1.416       .  A
C3039      C3048   1.403       .  A
N3040      O3055   1.262       .  A
N3040      O3056   1.262       .  A
N3042      O3053   1.262       .  A
N3042      O3054   1.262       .  A
C3044      C3045   1.409       .  A
C3044      N3049   1.428       .  S
C3045      C3046   1.402       .  A
C3045      H3050   1.084       .  S
C3046      C3047   1.414       .  A
C3047      C3048   1.406       .  A
C3047      N3051   1.428       .  S
C3048      H3052   1.083       .  S
N3049      O3059   1.262       .  A
N3049      O3060   1.262       .  A
N3051      O3057   1.261       .  A
N3051      O3058   1.261       .  A
C3061      C3062   1.400       .  A
C3061      C3066   1.405       .  A
C3061      H3071   1.083       .  S
C3062      C3067   1.494   1_565  S
C3062      C3063   1.413       .  A
C3063      C3064   1.411       .  A
C3063      N3068   1.428   1_565  S
C3064      C3065   1.405       .  A
C3064      H3069   1.083       .  S
C3065      C3066   1.417       .  A
C3066      N3070   1.429       .  S
C3067      C3072   1.410       .  A
C3067      C3076   1.404       .  A
N3068      O3083   1.262       .  A
N3068      O3084   1.262       .  A
N3070      O3081   1.262       .  A
N3070      O3082   1.262       .  A
C3072      C3073   1.409       .  A
C3072      N3077   1.430       .  S
C3073      C3074   1.408       .  A
C3073      H3078   1.082       .  S
C3074      C3075   1.410       .  A
C3075      C3076   1.407       .  A
C3075      N3079   1.428       .  S
C3076      H3080   1.083   1_545  S
N3077      O3087   1.262       .  A
N3077      O3088   1.262       .  A
N3079      O3086   1.261       .  A
C3089      C3090   1.404       .  A
C3089      C3094   1.397       .  A
C3089      H3099   1.082       .  S
C3090      C3095   1.487       .  S
C3090      C3091   1.411       .  A
C3091      C3092   1.400       .  A
C3091      N3096   1.430       .  S
C3092      C3093   1.406       .  A
C3092      H3097   1.083       .  S
C3093      C3094   1.414       .  A
C3094      N3098   1.429       .  S
C3095      C3100   1.412       .  A
C3095      C3104   1.406       .  A
N3096      O3111   1.262       .  A
N3096      O3112   1.262       .  A
N3098      O3109   1.262       .  A
N3098      O3110   1.262       .  A
C3100      C3101   1.396       .  A
C3100      N3105   1.431       .  S
C3101      C3102   1.401       .  A
C3101      H3106   1.084       .  S
C3102      C3103   1.411       .  A
C3103      C3104   1.401       .  A
C3103      N3107   1.430       .  S
C3104      H3108   1.082       .  S
N3105      O3115   1.262       .  A
N3105      O3116   1.262       .  A
N3107      O3113   1.261       .  A
N3107      O3114   1.262       .  A
C3117      C3118   1.402       .  A
C3117      C3122   1.405       .  A
C3117      H3127   1.083       .  S
C3119      N3124   1.429       .  S
C3120      C3121   1.409       .  A
C3120      H3125   1.083       .  S
C3121      C3122   1.419       .  A
C3122      N3126   1.427       .  S
C3123      C3128   1.412   1_556  A
C3123      C3132   1.402       .  A
N3124      O3139   1.262       .  A
N3124      O3140   1.262       .  A
N3126      O3137   1.261       .  A
N3126      O3138   1.262       .  A
C3128      C3129   1.407   1_554  A
C3129      C3130   1.403       .  A
C3129      H3134   1.083       .  S
C3130      C3131   1.415       .  A
C3131      C3132   1.402       .  A
C3131      N3135   1.431       .  S
C3132      H3136   1.084       .  S
N3133      O3143   1.262       .  A
N3133      O3144   1.262       .  A
N3135      O3141   1.262       .  A
N3135      O3142   1.261       .  A
C3145      C3146   1.401       .  A
C3145      C3150   1.399       .  A
C3145      H3155   1.084       .  S
C3146      C3147   1.406       .  A
C3147      C3148   1.397       .  A
C3148      C3149   1.408       .  A
C3148      H3153   1.083       .  S
C3149      C3150   1.415       .  A
C3150      N3154   1.429       .  S
C3151      C3156   1.406       .  A
C3151      C3160   1.397       .  A
N3152      O3167   1.262       .  A
N3152      O3168   1.262       .  A
N3154      O3165   1.262       .  A
N3154      O3166   1.262       .  A
C3156      C3157   1.400       .  A
C3157      C3158   1.409       .  A
C3157      H3162   1.083       .  S
C3158      C3159   1.417       .  A
C3159      C3160   1.395       .  A
C3159      N3163   1.429       .  S
C3160      H3164   1.084       .  S
N3161      O3171   1.262       .  A
N3161      O3172   1.262       .  A
N3163      O3169   1.262       .  A
N3163      O3170   1.262       .  A
C3173      C3174   1.404       .  A
C3173      C3178   1.405       .  A
C3173      H3183   1.083       .  S
C3174      C3179   1.493       .  S
C3174      C3175   1.410       .  A
C3175      C3176   1.403       .  A
C3175      N3180   1.429       .  S
C3176      C3177   1.409       .  A
C3176      H3181   1.083       .  S
C3177      C3178   1.417       .  A
C3178      N3182   1.429       .  S
C3179      C3184   1.410       .  A
C3179      C3188   1.408       .  A
N3180      O3195   1.262       .  A
N3180      O3196   1.262       .  A
N3182      O3193   1.262       .  A
N3182      O3194   1.262       .  A
C3184      C3185   1.401       .  A
C3184      N3189   1.429       .  S
C3185      C3186   1.405       .  A
C3185      H3190   1.083       .  S
C3186      C3187   1.411       .  A
C3187      C3188   1.408       .  A
C3187      N3191   1.428       .  S
C3188      H3192   1.082       .  S
N3189      O3199   1.262       .  A
N3189      O3200   1.262       .  A
N3191      O3197   1.262       .  A
N3191      O3198   1.262       .  A
C3201      C3202   1.402       .  A
C3201      C3206   1.398       .  A
C3201      H3211   1.084       .  S
C3202      C3207   1.484       .  S
C3202      C3203   1.408       .  A
C3203      C3204   1.406       .  A
C3203      N3208   1.428   1_455  S
C3204      C3205   1.408       .  A
C3204      H3209   1.083       .  S
C3205      C3206   1.413       .  A
C3207      C3212   1.409   1_455  A
C3207      C3216   1.403       .  A
N3208      O3223   1.262       .  A
N3208      O3224   1.262       .  A
N3210      O3221   1.262       .  A
N3210      O3222   1.262       .  A
C3212      C3213   1.406       .  A
C3213      C3214   1.408       .  A
C3213      H3218   1.082       .  S
C3214      C3215   1.410   1_655  A
C3215      C3216   1.399       .  A
C3215      N3219   1.429       .  S
C3216      H3220   1.084       .  S
N3217      O3227   1.262   1_655  A
N3217      O3228   1.262       .  A
N3219      O3225   1.262       .  A
N3219      O3226   1.262       .  A
C3229      C3230   1.400       .  A
C3229      C3234   1.400       .  A
C3229      H3239   1.084       .  S
C3230      C3235   1.476       .  S
C3230      C3231   1.409       .  A
C3231      C3232   1.398       .  A
C3231      N3236   1.431       .  S
C3232      C3233   1.405       .  A
C3232      H3237   1.084       .  S
C3233      C3234   1.414       .  A
C3234      N3238   1.428       .  S
C3235      C3240   1.406       .  A
C3235      C3244   1.402       .  A
N3236      O3251   1.262       .  A
N3236      O3252   1.262       .  A
N3238      O3249   1.262       .  A
N3238      O3250   1.262       .  A
C3240      C3241   1.396       .  A
C3240      N3245   1.430       .  S
C3241      C3242   1.404       .  A
C3241      H3246   1.084       .  S
C3242      C3243   1.412       .  A
C3243      C3244   1.401       .  A
C3244      H3248   1.084       .  S
N3245      O3255   1.262       .  A
N3245      O3256   1.262       .  A
N3247      O3253   1.262       .  A
N3247      O3254   1.262       .  A
C3257      C3258   1.406       .  A
C3257      C3262   1.408       .  A
C3257      H3267   1.082       .  S
C3258      C3263   1.494       .  S
C3258      C3259   1.406       .  A
C3259      C3260   1.404       .  A
C3259      N3264   1.428       .  S
C3260      C3261   1.412       .  A
C3260      H3265   1.082       .  S
C3261      C3262   1.417       .  A
C3262      N3266   1.429       .  S
C3263      C3268   1.405       .  A
C3263      C3272   1.408       .  A
N3264      O3279   1.262       .  A
N3264      O3280   1.262       .  A
N3266      O3277   1.262       .  A
N3266      O3278   1.262       .  A
C3268      C3269   1.397       .  A
C3268      N3273   1.429       .  S
C3269      C3270   1.412       .  A
C3269      H3274   1.082       .  S
C3270      C3271   1.418       .  A
C3271      C3272   1.414       .  A
C3271      N3275   1.429       .  S
C3272      H3276   1.082       .  S
N3273      O3283   1.262       .  A
N3273      O3284   1.262       .  A
N3275      O3281   1.262       .  A
N3275      O3282   1.262       .  A
C3285      C3286   1.396       .  A
C3285      C3290   1.393       .  A
C3285      H3295   1.084       .  S
C3286      C3291   1.480       .  S
C3286      C3287   1.409       .  A
C3287      C3288   1.409       .  A
C3287      N3292   1.427       .  S
C3288      C3289   1.405       .  A
C3288      H3293   1.083       .  S
C3289      C3290   1.419       .  A
C3290      N3294   1.431       .  S
C3291      C3296   1.406       .  A
C3291      C3300   1.408       .  A
N3292      O3307   1.262   1_655  A
N3292      O3308   1.261       .  A
N3294      O3305   1.262       .  A
N3294      O3306   1.262       .  A
C3296      C3297   1.391       .  A
C3296      N3301   1.430       .  S
C3297      C3298   1.402       .  A
C3297      H3302   1.084       .  S
C3298      C3299   1.410       .  A
C3299      C3300   1.412       .  A
C3299      N3303   1.428   1_655  S
C3300      H3304   1.083   1_655  S
N3301      O3311   1.262       .  A
N3301      O3312   1.261       .  A
N3303      O3309   1.262       .  A
N3303      O3310   1.261       .  A
C3313      C3314   1.403       .  A
C3313      C3318   1.397       .  A
C3313      H3323   1.084       .  S
C3314      C3319   1.480       .  S
C3314      C3315   1.411       .  A
C3315      C3316   1.400       .  A
C3315      N3320   1.432       .  S
C3316      C3317   1.404       .  A
C3316      H3321   1.083       .  S
C3317      C3318   1.411       .  A
C3318      N3322   1.429       .  S
C3319      C3324   1.411       .  A
C3319      C3328   1.401       .  A
N3320      O3335   1.262       .  A
N3320      O3336   1.262       .  A
N3322      O3333   1.262       .  A
N3322      O3334   1.262       .  A
C3324      C3325   1.399       .  A
C3324      N3329   1.432       .  S
C3325      C3326   1.407       .  A
C3325      H3330   1.083       .  S
C3326      C3327   1.415       .  A
C3327      C3328   1.399       .  A
C3327      N3331   1.429       .  S
C3328      H3332   1.084       .  S
N3329      O3339   1.262       .  A
N3329      O3340   1.262       .  A
N3331      O3337   1.262       .  A
N3331      O3338   1.262       .  A
C3341      C3342   1.407       .  A
C3341      C3346   1.409       .  A
C3341      H3351   1.082       .  S
C3342      C3347   1.489       .  S
C3342      C3343   1.406       .  A
C3343      C3344   1.397       .  A
C3343      N3348   1.429       .  S
C3344      C3345   1.407       .  A
C3345      C3346   1.415       .  A
C3346      N3350   1.429       .  S
C3347      C3352   1.407       .  A
C3347      C3356   1.404       .  A
N3348      O3364   1.262       .  A
N3350      O3361   1.262       .  A
N3350      O3362   1.262       .  A
C3352      C3353   1.401       .  A
C3352      N3357   1.429       .  S
C3353      C3354   1.411       .  A
C3353      H3358   1.082       .  S
C3354      C3355   1.417       .  A
C3355      C3356   1.405       .  A
C3355      N3359   1.428       .  S
C3356      H3360   1.082       .  S
N3357      O3367   1.262       .  A
N3357      O3368   1.262       .  A
N3359      O3365   1.262       .  A
N3359      O3366   1.262       .  A
C3369      C3370   1.404       .  A
C3369      C3374   1.403       .  A
C3369      H3379   1.083       .  S
C3370      C3375   1.487   1_655  S
C3370      C3371   1.408       .  A
C3371      C3372   1.406       .  A
C3371      N3376   1.429       .  S
C3372      C3373   1.409       .  A
C3372      H3377   1.081       .  S
C3373      C3374   1.411       .  A
C3374      N3378   1.429       .  S
C3375      C3380   1.409       .  A
C3375      C3384   1.402       .  A
N3376      O3391   1.262       .  A
N3376      O3392   1.262       .  A
N3378      O3389   1.262       .  A
N3378      O3390   1.262       .  A
C3380      C3381   1.407       .  A
C3380      N3385   1.428       .  S
C3381      C3382   1.408       .  A
C3381      H3386   1.083       .  S
C3382      C3383   1.414       .  A
C3383      C3384   1.402       .  A
C3383      N3387   1.429       .  S
C3384      H3388   1.084       .  S
N3385      O3395   1.261       .  A
N3385      O3396   1.261       .  A
N3387      O3393   1.262       .  A
N3387      O3394   1.262       .  A
C3397      C3398   1.405       .  A
C3397      C3402   1.406       .  A
C3397      H3407   1.083       .  S
C3398      C3403   1.483       .  S
C3398      C3399   1.404       .  A
C3399      C3400   1.398       .  A
C3399      N3404   1.429       .  S
C3400      C3401   1.411       .  A
C3400      H3405   1.083       .  S
C3401      C3402   1.414       .  A
C3402      N3406   1.428       .  S
C3403      C3408   1.402       .  A
C3403      C3412   1.406       .  A
N3404      O3419   1.262       .  A
N3404      O3420   1.262       .  A
N3406      O3417   1.262       .  A
N3406      O3418   1.262       .  A
C3408      C3409   1.394       .  A
C3408      N3413   1.429       .  S
C3409      C3410   1.411       .  A
C3410      C3411   1.415       .  A
C3411      C3412   1.409       .  A
C3411      N3415   1.428       .  S
C3412      H3416   1.081       .  S
N3413      O3424   1.262       .  A
N3415      O3421   1.262       .  A
N3415      O3422   1.262       .  A
C3425      C3426   1.401       .  A
C3425      C3430   1.396       .  A
C3425      H3435   1.083       .  S
C3426      C3431   1.483       .  S
C3426      C3427   1.411       .  A
C3427      C3428   1.402       .  A
C3427      N3432   1.429       .  S
C3428      C3429   1.406       .  A
C3428      H3433   1.083       .  S
C3429      C3430   1.413       .  A
C3430      N3434   1.428       .  S
C3431      C3436   1.410       .  A
C3431      C3440   1.404       .  A
N3432      O3447   1.262       .  A
N3432      O3448   1.262       .  A
N3434      O3445   1.262       .  A
N3434      O3446   1.262       .  A
C3436      C3437   1.396       .  A
C3436      N3441   1.430       .  S
C3437      C3438   1.404       .  A
C3437      H3442   1.084       .  S
C3438      C3439   1.414       .  A
C3439      C3440   1.402       .  A
C3439      N3443   1.429       .  S
C3440      H3444   1.083       .  S
N3441      O3451   1.262       .  A
N3441      O3452   1.262       .  A
N3443      O3449   1.261       .  A
N3443      O3450   1.262       .  A
C3453      C3454   1.409       .  A
C3453      C3458   1.415       .  A
C3453      H3463   1.083       .  S
C3454      C3459   1.505       .  S
C3454      C3455   1.409       .  A
C3455      C3456   1.405       .  A
C3455      N3460   1.429       .  S
C3456      C3457   1.412       .  A
C3456      H3461   1.083       .  S
C3457      C3458   1.418       .  A
C3458      N3462   1.428       .  S
C3459      C3464   1.409       .  A
C3459      C3468   1.411       .  A
N3460      O3475   1.262       .  A
N3460      O3476   1.262       .  A
N3462      O3473   1.262       .  A
N3462      O3474   1.262       .  A
C3464      C3465   1.406       .  A
C3464      N3469   1.429       .  S
C3465      C3466   1.410       .  A
C3465      H3470   1.079       .  S
C3466      C3467   1.413       .  A
C3467      C3468   1.415       .  A
C3467      N3471   1.428       .  S
C3468      H3472   1.082       .  S
N3469      O3479   1.262       .  A
N3469      O3480   1.262       .  A
N3471      O3477   1.262       .  A
N3471      O3478   1.262       .  A
C3481      C3482   1.401       .  A
C3481      C3486   1.397       .  A
C3481      H3491   1.084       .  S
C3482      C3487   1.474       .  S
C3482      C3483   1.409       .  A
C3483      C3484   1.399       .  A
C3483      N3488   1.430       .  S
C3484      C3485   1.403       .  A
C3484      H3489   1.084       .  S
C3485      C3486   1.410       .  A
C3487      C3492   1.408       .  A
C3487      C3496   1.399       .  A
N3488      O3503   1.262       .  A
N3488      O3504   1.262       .  A
N3490      O3501   1.262       .  A
N3490      O3502   1.261       .  A
C3492      C3493   1.398       .  A
C3492      N3497   1.431       .  S
C3493      C3494   1.406       .  A
C3493      H3498   1.083       .  S
C3494      C3495   1.417       .  A
C3495      C3496   1.398       .  A
C3495      N3499   1.430       .  S
C3496      H3500   1.084       .  S
N3497      O3507   1.262       .  A
N3497      O3508   1.262       .  A
N3499      O3505   1.262       .  A
N3499      O3506   1.262       .  A
C3509      C3510   1.408       .  A
C3509      C3514   1.405       .  A
C3509      H3519   1.082       .  S
C3510      C3515   1.496       .  S
C3510      C3511   1.411       .  A
C3511      C3512   1.404       .  A
C3511      N3516   1.429       .  S
C3512      C3513   1.406       .  A
C3512      H3517   1.082       .  S
C3513      C3514   1.407       .  A
C3514      N3518   1.428       .  S
C3515      C3524   1.406       .  A
N3516      O3531   1.262       .  A
N3516      O3532   1.262       .  A
N3518      O3529   1.262       .  A
N3518      O3530   1.262       .  A
C3520      C3521   1.408       .  A
C3520      N3525   1.429       .  S
C3521      C3522   1.404       .  A
C3521      H3526   1.083       .  S
C3523      C3524   1.408       .  A
C3523      N3527   1.429   1_556  S
C3524      H3528   1.079       .  S
N3525      O3535   1.262       .  A
N3525      O3536   1.262       .  A
N3527      O3533   1.262   1_554  A
N3527      O3534   1.262       .  A
C3537      C3538   1.403       .  A
C3537      C3542   1.407       .  A
C3537      H3547   1.083       .  S
C3538      C3543   1.486       .  S
C3538      C3539   1.405       .  A
C3539      C3540   1.401       .  A
C3539      N3544   1.429       .  S
C3540      C3541   1.410       .  A
C3540      H3545   1.083       .  S
C3541      C3542   1.418       .  A
C3542      N3546   1.429       .  S
C3543      C3548   1.404       .  A
C3543      C3552   1.403       .  A
N3544      O3559   1.262       .  A
N3544      O3560   1.262       .  A
N3546      O3557   1.262       .  A
N3546      O3558   1.262       .  A
C3548      C3549   1.401       .  A
C3548      N3553   1.430       .  S
C3549      C3550   1.414       .  A
C3549      H3554   1.082       .  S
C3550      C3551   1.418       .  A
C3551      C3552   1.410       .  A
C3551      N3555   1.428       .  S
C3552      H3556   1.082       .  S
N3553      O3563   1.262       .  A
N3553      O3564   1.262       .  A
N3555      O3561   1.262       .  A
N3555      O3562   1.262       .  A
C3565      C3566   1.401       .  A
C3565      C3570   1.401       .  A
C3565      H3575   1.084       .  S
C3566      C3567   1.410       .  A
C3567      C3568   1.400       .  A
C3568      C3569   1.408       .  A
C3568      H3573   1.083       .  S
C3569      C3570   1.415       .  A
C3570      N3574   1.429       .  S
C3571      C3576   1.408       .  A
C3571      C3580   1.401       .  A
N3572      O3587   1.262       .  A
N3572      O3588   1.262       .  A
N3574      O3585   1.262       .  A
N3574      O3586   1.262       .  A
C3576      C3577   1.399       .  A
C3577      C3578   1.405       .  A
C3577      H3582   1.083       .  S
C3578      C3579   1.409       .  A
C3579      C3580   1.397       .  A
C3579      N3583   1.429       .  S
C3580      H3584   1.083       .  S
N3581      O3591   1.262       .  A
N3581      O3592   1.262       .  A
N3583      O3589   1.262       .  A
N3583      O3590   1.262       .  A
C3593      C3594   1.403       .  A
C3593      C3598   1.405       .  A
C3594      C3595   1.409       .  A
C3595      C3596   1.405       .  A
C3595      N3600   1.429       .  S
C3596      C3597   1.408       .  A
C3596      H3601   1.082       .  S
C3597      C3598   1.414       .  A
C3598      N3602   1.428       .  S
C3599      C3604   1.413   1_556  A
C3599      C3608   1.401       .  A
N3600      O3615   1.262       .  A
N3600      O3616   1.262       .  A
N3602      O3614   1.261       .  A
C3604      C3605   1.412   1_554  A
C3604      N3609   1.428       .  S
C3605      C3606   1.405       .  A
C3605      H3610   1.082       .  S
C3606      C3607   1.417       .  A
C3607      C3608   1.404       .  A
C3607      N3611   1.429       .  S
C3608      H3612   1.083       .  S
N3609      O3619   1.262       .  A
N3611      O3617   1.262       .  A
N3611      O3618   1.261       .  A
C3621      C3622   1.399       .  A
C3621      C3626   1.398       .  A
C3621      H3631   1.084       .  S
C3622      C3627   1.472       .  S
C3622      C3623   1.408       .  A
C3623      C3624   1.397       .  A
C3623      N3628   1.432       .  S
C3624      C3625   1.404       .  A
C3624      H3629   1.084       .  S
C3625      C3626   1.414       .  A
C3626      N3630   1.430       .  S
C3627      C3632   1.406       .  A
C3627      C3636   1.400       .  A
N3628      O3643   1.262       .  A
N3628      O3644   1.262       .  A
N3630      O3641   1.262       .  A
N3630      O3642   1.262       .  A
C3632      C3633   1.395       .  A
C3632      N3637   1.431       .  S
C3633      C3634   1.407       .  A
C3633      H3638   1.083       .  S
C3634      C3635   1.415       .  A
C3635      C3636   1.397       .  A
C3635      N3639   1.429       .  S
C3636      H3640   1.084       .  S
N3637      O3647   1.262       .  A
N3637      O3648   1.262       .  A
N3639      O3645   1.262       .  A
N3639      O3646   1.262       .  A
C3649      C3650   1.410       .  A
C3649      C3654   1.415       .  A
C3649      H3659   1.082       .  S
C3650      C3655   1.495   1_455  S
C3650      C3651   1.407       .  A
C3651      C3652   1.397       .  A
C3651      N3656   1.430       .  S
C3652      C3653   1.408       .  A
C3652      H3657   1.083       .  S
C3653      C3654   1.413       .  A
C3654      N3658   1.428       .  S
C3655      C3660   1.407       .  A
C3655      C3664   1.411       .  A
N3656      O3671   1.262       .  A
N3656      O3672   1.262   1_455  A
N3658      O3669   1.261       .  A
N3658      O3670   1.262       .  A
C3660      C3661   1.401       .  A
C3660      N3665   1.429       .  S
C3661      C3662   1.408       .  A
C3661      H3666   1.084       .  S
C3662      C3663   1.407       .  A
C3663      C3664   1.410       .  A
C3663      N3667   1.428       .  S
C3664      H3668   1.082   1_655  S
N3665      O3675   1.262       .  A
N3665      O3676   1.262       .  A
N3667      O3674   1.262       .  A
C3677      C3678   1.397       .  A
C3677      C3682   1.397       .  A
C3677      H3687   1.084       .  S
C3678      C3683   1.496       .  S
C3678      C3679   1.416       .  A
C3679      C3680   1.416       .  A
C3679      N3684   1.428       .  S
C3680      C3681   1.407       .  A
C3680      H3685   1.083       .  S
C3681      C3682   1.423       .  A
C3682      N3686   1.431       .  S
C3683      C3688   1.415       .  A
C3683      C3692   1.396       .  A
N3684      O3699   1.262       .  A
N3684      O3700   1.262       .  A
N3686      O3697   1.262       .  A
N3686      O3698   1.262   1_455  A
C3688      C3689   1.413       .  A
C3688      N3693   1.428       .  S
C3689      C3690   1.405       .  A
C3689      H3694   1.082       .  S
C3690      C3691   1.428       .  A
C3691      C3692   1.401       .  A
C3691      N3695   1.433       .  S
C3692      H3696   1.083       .  S
N3693      O3703   1.262       .  A
N3693      O3704   1.262       .  A
N3695      O3701   1.262       .  A
N3695      O3702   1.262       .  A
C3705      C3706   1.408       .  A
C3705      C3710   1.406       .  A
C3705      H3715   1.083       .  S
C3706      C3711   1.504       .  S
C3706      C3707   1.417       .  A
C3707      C3708   1.409       .  A
C3707      N3712   1.431       .  S
C3708      C3709   1.404       .  A
C3708      H3713   1.083       .  S
C3709      C3710   1.411       .  A
C3710      N3714   1.430       .  S
C3711      C3716   1.419       .  A
C3711      C3720   1.402       .  A
N3712      O3727   1.262       .  A
N3712      O3728   1.262       .  A
N3714      O3725   1.262       .  A
N3714      O3726   1.262       .  A
C3716      C3717   1.414       .  A
C3716      N3721   1.432       .  S
C3717      C3718   1.406       .  A
C3717      H3722   1.083       .  S
C3718      C3719   1.419       .  A
C3719      C3720   1.402       .  A
C3719      N3723   1.431       .  S
C3720      H3724   1.084       .  S
N3721      O3731   1.262       .  A
N3721      O3732   1.262       .  A
N3723      O3729   1.262       .  A
N3723      O3730   1.261       .  A
C3733      C3734   1.401       .  A
C3733      C3738   1.400       .  A
C3733      H3743   1.084       .  S
C3734      C3739   1.472       .  S
C3734      C3735   1.402       .  A
C3735      C3736   1.397       .  A
C3735      N3740   1.429       .  S
C3736      C3737   1.411       .  A
C3736      H3741   1.083       .  S
C3737      C3738   1.416       .  A
C3739      C3744   1.404       .  A
C3739      C3748   1.405       .  A
N3740      O3755   1.262       .  A
N3740      O3756   1.262       .  A
N3742      O3753   1.262   1_554  A
N3742      O3754   1.262       .  A
C3744      C3745   1.392       .  A
C3744      N3749   1.429       .  S
C3745      C3746   1.403       .  A
C3745      H3750   1.084       .  S
C3746      C3747   1.409       .  A
C3747      C3748   1.405       .  A
C3747      N3751   1.429       .  S
C3748      H3752   1.083       .  S
N3749      O3759   1.262       .  A
N3749      O3760   1.262       .  A
N3751      O3757   1.262       .  A
N3751      O3758   1.262       .  A
C3761      C3762   1.405       .  A
C3761      C3766   1.406       .  A
C3761      H3771   1.084       .  S
C3762      C3767   1.499       .  S
C3762      C3763   1.412       .  A
C3763      C3764   1.410       .  A
C3763      N3768   1.431       .  S
C3764      C3765   1.411       .  A
C3764      H3769   1.083       .  S
C3765      C3766   1.419       .  A
C3767      C3772   1.416       .  A
C3767      C3776   1.397       .  A
N3768      O3783   1.262       .  A
N3768      O3784   1.262       .  A
N3770      O3781   1.262       .  A
N3770      O3782   1.262       .  A
C3772      C3773   1.415       .  A
C3772      N3777   1.429       .  S
C3773      C3774   1.410       .  A
C3773      H3778   1.083       .  S
C3774      C3775   1.424       .  A
C3775      C3776   1.399       .  A
C3775      N3779   1.429       .  S
C3776      H3780   1.084       .  S
N3777      O3787   1.262       .  A
N3777      O3788   1.262       .  A
N3779      O3785   1.262       .  A
N3779      O3786   1.262       .  A
C3789      C3790   1.402       .  A
C3789      C3794   1.396       .  A
C3789      H3799   1.083       .  S
C3790      C3795   1.476       .  S
C3790      C3791   1.409       .  A
C3791      C3792   1.396       .  A
C3791      N3796   1.430       .  S
C3792      C3793   1.404       .  A
C3792      H3797   1.083       .  S
C3793      C3794   1.412       .  A
C3794      N3798   1.429       .  S
C3795      C3800   1.410       .  A
C3795      C3804   1.405       .  A
N3796      O3811   1.262       .  A
N3796      O3812   1.261       .  A
N3798      O3809   1.261       .  A
N3798      O3810   1.262       .  A
C3800      C3801   1.397       .  A
C3800      N3805   1.429       .  S
C3801      C3802   1.398       .  A
C3801      H3806   1.081       .  S
C3802      C3803   1.404       .  A
C3803      C3804   1.395       .  A
C3803      N3807   1.430       .  S
C3804      H3808   1.081       .  S
N3805      O3815   1.262       .  A
N3805      O3816   1.262       .  A
N3807      O3813   1.262       .  A
N3807      O3814   1.262       .  A
