geometry optimzed in LAMMPS
_audit_creation_date              2020-12-01 
_audit_creation_method            'lammps2cif' 
_symmetry_space_group_name_H-M    'P1' 
_symmetry_Int_Tables_number       1 
_symmetry_cell_setting            triclinic 
loop_ 
_symmetry_equiv_pos_as_xyz 
  x,y,z 
_cell_length_a                    52.02083801 
_cell_length_b                    49.56638571750368 
_cell_length_c                    38.689762011801 
_cell_angle_alpha                 89.73203173729833 
_cell_angle_beta                  96.34814913092912 
_cell_angle_gamma                 121.57358686562984 
loop_ 
_atom_site_label 
_atom_site_type_symbol 
_atom_site_fract_x 
_atom_site_fract_y 
_atom_site_fract_z 
_atom_site_charge 
O1          O  0.00268123  0.48407022  0.42362829    -0.81100
O2          O  0.02707657  0.49333076  0.26823348    -0.65800
O3          O  0.02511564  0.01069036  0.36313980    -1.12400
C4          C  0.43182575  0.99784538  0.31497505     1.05800
O5          O  0.51567489  0.02643089  0.25083424    -0.79000
O6          O  0.49229674  0.05412581  0.28944169    -0.66600
Ni7        Ni  0.03819462  0.49417469  0.40092775     1.34900
C8          C  0.50165904  0.06684596  0.32034623     0.84500
O9          O  0.06597836  0.00754664  0.32525447    -0.79500
O10         O  0.07438029  0.50268940  0.38221979    -0.89800
C11         C  0.02293420  0.00848137  0.24470400     0.84100
O12         O  0.01868153  0.45174312  0.37991735    -0.68000
O13         O  0.43948188  0.99872308  0.28460369    -0.87300
C14         C  0.01309846  0.44111779  0.34828290     0.84900
C15         C  0.08228275  0.50554735  0.35163820     1.06500
H16         H  0.47820256  0.47299671  0.30663512     0.38300
O17         O  0.49181972  0.49575585  0.30957820    -1.10000
O18         O  0.50517581  0.05213155  0.34599785    -0.66600
Ni19       Ni  0.48736820  0.00688163  0.35347652     1.26300
O20         O  0.01304335  0.45763930  0.32274469    -0.66800
O21         O  0.44985046  0.50071396  0.34264717    -0.79100
C22         C  0.48925797  0.50298547  0.42672562     0.84300
O23         O  0.48798604  0.01785751  0.40096455    -0.66300
Ni24       Ni  0.47786432  0.01237608  0.26914824     1.27400
Ni25       Ni  0.02890147  0.50275718  0.31687699     1.26100
H26         H  0.04035525  0.03286656  0.36860664     0.38800
O27         O  0.01573303  0.24051356  0.42503794    -0.81100
O28         O  0.03093824  0.24629194  0.26437807    -0.65800
O29         O  0.03663737  0.26748547  0.36140178    -1.11200
C30         C  0.43991694  0.25075245  0.31968095     1.05800
O31         O  0.01674339  0.28006985  0.25087356    -0.79000
O32         O  0.49615135  0.30776815  0.29060451    -0.66600
Ni33       Ni  0.04631451  0.24591225  0.39667028     1.34900
C34         C  0.00530566  0.31887069  0.32410674     0.84500
O35         O  0.07462245  0.26466705  0.31851834    -0.79500
O36         O  0.07807492  0.24970090  0.37280252    -0.89800
C37         C  0.02714319  0.26326746  0.24201816     0.84100
O38         O  0.02097569  0.20310086  0.37675740    -0.68000
O39         O  0.44580120  0.25079811  0.28852558    -0.87300
C40         C  0.01707865  0.19278783  0.34533185     0.84900
C41         C  0.08716191  0.25662925  0.34293821     1.06500
H42         H  0.48028848  0.22603650  0.30471767     0.38300
O43         O  0.49484895  0.24863950  0.30698223    -1.10000
O44         O  0.01165878  0.30540696  0.34910313    -0.66600
Ni45       Ni  0.49790935  0.26281965  0.35373463     1.26300
O46         O  0.02051158  0.21040959  0.31966047    -0.66800
O47         O  0.45826373  0.25639668  0.34733715    -0.79100
C48         C  0.50739921  0.25982294  0.42609529     0.84300
O49         O  0.50265511  0.27522320  0.40246230    -0.66300
Ni50       Ni  0.48305549  0.26652865  0.26985067     1.27400
Ni51       Ni  0.03419783  0.25540099  0.31363568     1.26100
H52         H  0.05151944  0.28992691  0.36541976     0.38800
O53         O  0.25232392  0.46570878  0.41816374    -0.81100
O54         O  0.25419486  0.46051244  0.26026344    -0.65800
O55         O  0.26857264  0.99142849  0.35686984    -1.12400
C56         C  0.17069476  0.97674360  0.33098201     1.05800
O57         O  0.24004522  0.99470177  0.24975689    -0.79000
O58         O  0.22458049  0.02695855  0.29156022    -0.66600
Ni59       Ni  0.28404942  0.47377311  0.39042292     1.34900
C60         C  0.23912724  0.04257612  0.32027404     0.84500
O61         O  0.30186565  0.98346553  0.31216337    -0.79500
O62         O  0.31692735  0.48154644  0.36539436    -0.89800
C63         C  0.24786466  0.97554948  0.24124824     0.84100
O64         O  0.26323157  0.43001221  0.37400422    -0.68000
O65         O  0.17263084  0.97304174  0.29898968    -0.87300
C66         C  0.25343750  0.41646516  0.34356041     0.84900
C67         C  0.32117449  0.48338875  0.33329762     1.06500
H68         H  0.20862886  0.44532550  0.30922982     0.38300
O69         O  0.22322069  0.46782535  0.30914414    -1.10000
O70         O  0.24581293  0.02998703  0.34575245    -0.66600
Ni71       Ni  0.22976540  0.98609470  0.35742461     1.26300
O72         O  0.24940125  0.43035424  0.31741118    -0.66800
O73         O  0.19228630  0.48142898  0.35337096    -0.79100
C74         C  0.24558843  0.48615240  0.42554714     0.84300
O75         O  0.23877062  0.00154262  0.40432822    -0.66300
Ni76       Ni  0.20670701  0.98334644  0.27542881     1.27400
Ni77       Ni  0.26255377  0.47419221  0.30791824     1.26100
H78         H  0.28337411  0.01388155  0.35688189     0.38800
O79         O  0.25591457  0.21331011  0.41514794    -0.81100
O80         O  0.26376747  0.21572877  0.25682224    -0.65800
O81         O  0.27487376  0.24354572  0.35260338    -1.12400
C82         C  0.17916224  0.22985924  0.32582790     1.05800
O83         O  0.24875317  0.24856020  0.24009804    -0.79000
O84         O  0.24198890  0.28418963  0.28820819    -0.66600
Ni85       Ni  0.28972076  0.22708535  0.38889301     1.34900
C86         C  0.24742314  0.29549023  0.31937553     0.84500
O87         O  0.30982612  0.23661640  0.30820090    -0.79500
O88         O  0.32464225  0.24028113  0.36610383    -0.89800
C89         C  0.25937629  0.23143343  0.23335686     0.84100
O90         O  0.27286799  0.18452240  0.36983036    -0.68000
O91         O  0.18641404  0.23532642  0.29498045    -0.87300
C92         C  0.26027662  0.17050891  0.33987601     0.84900
C93         C  0.32909386  0.24120557  0.33430943     1.06500
H94         H  0.21543309  0.19892637  0.30186450     0.38300
O95         O  0.23018207  0.22146530  0.30470287    -1.10000
O96         O  0.24672683  0.27906550  0.34536784    -0.66600
Ni97       Ni  0.23482433  0.23491487  0.35255616     1.26300
O98         O  0.25514537  0.18430506  0.31444291    -0.66800
O99         O  0.19420297  0.22488935  0.35040286    -0.79100
C100        C  0.24719567  0.23150393  0.42435652     0.84300
O101        O  0.24114345  0.24662685  0.40160794    -0.66300
Ni102      Ni  0.21813625  0.24106958  0.26957991     1.27400
Ni103      Ni  0.26977878  0.22852855  0.30543380     1.26100
H104        H  0.28870948  0.26628989  0.35408229     0.38800
O105        O  0.04694828  0.02540887  0.08346858    -0.81100
O106        O  0.02830668  0.02120204  0.92690670    -0.65800
O107        O  0.00973140  0.01005676  0.02055208    -1.12400
C108        C  0.01831403  0.42219616  0.00916695     1.05800
O109        O  0.49123585  0.47247196  0.91613380    -0.79000
O110        O  0.46315565  0.42733748  0.96215437    -0.66600
Ni111      Ni  0.02993974  0.04495574  0.05415578     1.34900
C112        C  0.45326166  0.42662278  0.99085824     0.84500
O113        O  0.01410547  0.05280183  0.97029045    -0.79500
O114        O  0.01416585  0.06607983  0.02624950    -0.89800
C115        C  0.01284177  0.99832387  0.90402016     0.84100
O116        O  0.06812996  0.07086684  0.03702278    -0.68000
O117        O  0.00853068  0.42278066  0.97758566    -0.87300
C118        C  0.07893595  0.06940253  0.00984338     0.84900
C119        C  0.01134078  0.06909450  0.99348640     1.06500
H120        H  0.04905416  0.49243714  0.98057671     0.38300
O121        O  0.02801428  0.48550270  0.98166347    -1.10000
O122        O  0.46997359  0.44671059  0.01661750    -0.66600
Ni123      Ni  0.02035860  0.47841548  0.02918162     1.26300
O124        O  0.06337762  0.04708431  0.98606993    -0.66800
O125        O  0.02831097  0.44494216  0.03215732    -0.79100
C126        C  0.03350666  0.50115417  0.09836256     0.84300
O127        O  0.01593435  0.47640005  0.07826910    -0.66300
Ni128      Ni  0.50288898  0.44958642  0.94778861     1.27400
Ni129      Ni  0.01979154  0.01745030  0.97418521     1.26100
H130        H  0.49045600  0.00496049  0.01817273     0.38800
O131        O  0.98052198  0.25440056  0.92032136    -0.81100
O132        O  0.03934833  0.26970495  0.07360214    -0.65800
O133        O  0.01683200  0.24859601  0.97466020    -1.12400
C134        C  0.42327853  0.17064435  0.00894409     1.05800
O135        O  0.02072247  0.21948766  0.08088093    -0.79000
O136        O  0.48619900  0.17173686  0.03175958    -0.66600
Ni137      Ni  0.02161040  0.27953655  0.94263243     1.34900
C138        C  0.98888365  0.16723372  0.00182720     0.84500
O139        O  0.07047792  0.29492747  0.01715058    -0.79500
O140        O  0.06297388  0.30704511  0.96226355    -0.89800
C141        C  0.03325028  0.24750820  0.09415784     0.84100
O142        O  0.00953439  0.30179098  0.96993229    -0.68000
O143        O  0.43803584  0.17727639  0.03943421    -0.87300
C144        C  0.01180294  0.30667790  0.00256266     0.84900
C145        C  0.07956279  0.31268611  0.99129295     1.06500
H146        H  0.47948176  0.24262393  0.03116548     0.38300
O147        O  0.48909119  0.23135981  0.02521224    -1.10000
O148        O  0.98790235  0.18512736  0.97897222    -0.66600
Ni149      Ni  0.47679107  0.21821400  0.97658765     1.26300
O150        O  0.01890401  0.29232968  0.02500602    -0.66800
O151        O  0.43541722  0.18496401  0.98219330    -0.79100
C152        C  0.47130386  0.22970313  0.90579811     0.84300
O153        O  0.46712568  0.20846145  0.92693563    -0.66300
Ni154      Ni  0.47995945  0.19980213  0.05818279     1.27400
Ni155      Ni  0.02941499  0.26094772  0.02347654     1.26100
H156        H  0.02798683  0.23942902  0.96746008     0.38800
O157        O  0.26241453  0.02014061  0.09182837    -0.81100
O158        O  0.25097225  0.01334761  0.92640062    -0.65800
O159        O  0.23679727  0.99976108  0.02130074    -1.12400
C160        C  0.27817387  0.43895392  0.01032080     1.05800
O161        O  0.23507441  0.46528220  0.90755319    -0.79000
O162        O  0.20883332  0.42740701  0.95981109    -0.66600
Ni163      Ni  0.24995790  0.03600712  0.05200463     1.34900
C164        C  0.20199833  0.42136678  0.99058856     0.84500
O165        O  0.22071039  0.02641344  0.96659888    -0.79500
O166        O  0.23782306  0.05586139  0.01696601    -0.89800
C167        C  0.24217940  0.99019178  0.90485013     0.84100
O168        O  0.29054381  0.05811339  0.04047984    -0.68000
O169        O  0.26259384  0.43055174  0.98039229    -0.87300
C170        C  0.29927716  0.06401369  0.01048536     0.84900
C171        C  0.22470448  0.04913171  0.98577871     1.06500
H172        H  0.28377944  0.50123615  0.97491713     0.38300
O173        O  0.26256732  0.48640173  0.97694340    -1.10000
O174        O  0.22054735  0.43752384  0.01729499    -0.66600
Ni175      Ni  0.25766131  0.47911741  0.02485038     1.26300
O176        O  0.28156225  0.04888832  0.98278754    -0.66800
O177        O  0.28194266  0.46135358  0.02974564    -0.79100
C178        C  0.25913252  0.49303794  0.09579292     0.84300
O179        O  0.25284096  0.47224994  0.07232779    -0.66300
Ni180      Ni  0.24877231  0.44982894  0.94640298     1.27400
Ni181      Ni  0.24399780  0.00751467  0.97374698     1.26100
H182        H  0.21537223  0.98490625  0.02214208     0.38800
O183        O  0.29993059  0.25268391  0.07697184    -0.81100
O184        O  0.26751479  0.28887075  0.93593478    -0.65800
O185        O  0.26380491  0.26155503  0.02918613    -1.12400
C186        C  0.24819398  0.16926966  0.97003966     1.05800
O187        O  0.22528081  0.24336671  0.92315891    -0.79000
O188        O  0.20116527  0.18705766  0.95439228    -0.66600
Ni189      Ni  0.29376322  0.28660119  0.06686758     1.34900
C190        C  0.19482048  0.18288202  0.98536800     0.84500
O191        O  0.27055707  0.31503651  0.99978211    -0.79500
O192        O  0.28809999  0.32095098  0.05746040    -0.89800
C193        C  0.24515800  0.26988674  0.91342299     0.84100
O194        O  0.32940980  0.30774304  0.04383029    -0.68000
O195        O  0.24733798  0.18215665  0.94169350    -0.87300
C196        C  0.33403154  0.31483054  0.01265496     0.84900
C197        C  0.28019550  0.33019920  0.02972076     1.06500
H198        H  0.28478060  0.24329511  0.96712496     0.38300
O199        O  0.26494361  0.23832720  0.97183986    -1.10000
O200        O  0.21462280  0.19995696  0.01118797    -0.66600
Ni201      Ni  0.25900504  0.22157772  0.01666801     1.26300
O202        O  0.31230916  0.30192525  0.98737899    -0.66800
O203        O  0.25357191  0.18224800  0.00073454    -0.79100
C204        C  0.27768491  0.22831078  0.08759077     0.84300
O205        O  0.25627399  0.20895955  0.06454018    -0.66300
Ni206      Ni  0.23696342  0.21319301  0.93287232     1.27400
Ni207      Ni  0.26769441  0.27722092  0.98399410     1.26100
H208        H  0.24464516  0.25748191  0.03540746     0.38800
O209        O  0.99651238  0.03257586  0.58207214    -0.81100
O210        O  0.02604554  0.02753915  0.73571313    -0.65800
O211        O  0.99734256  0.50445921  0.64230016    -1.12400
C212        C  0.41949455  0.02725028  0.66690286     1.05800
O213        O  0.47749906  0.49155817  0.74379855    -0.79000
O214        O  0.42459371  0.46724080  0.70086344    -0.66600
Ni215      Ni  0.01985161  0.01652337  0.60426371     1.34900
C216        C  0.41824658  0.45281832  0.67125549     0.84500
O217        O  0.04723809  0.50856786  0.68674559    -0.79500
O218        O  0.04463152  0.00115850  0.62592104    -0.89800
C219        C  0.00865536  0.51731276  0.75954640     0.84100
O220        O  0.05021700  0.05804061  0.62302691    -0.68000
O221        O  0.43055994  0.52434679  0.69967813    -0.87300
C222        C  0.05960761  0.07216332  0.65301854     0.84900
C223        C  0.05499098  0.00090965  0.65751646     1.06500
H224        H  0.49111865  0.05105130  0.68532087     0.38300
O225        O  0.48166177  0.02826287  0.68439077    -1.10000
O226        O  0.43395519  0.46588723  0.64620230    -0.66600
Ni227      Ni  0.46325743  0.51053959  0.63875580     1.26300
O228        O  0.04430503  0.06043762  0.67873514    -0.66800
O229        O  0.42963366  0.02142456  0.64048746    -0.79100
C230        C  0.47047897  0.01543308  0.56752531     0.84300
O231        O  0.45127955  0.49979289  0.58885855    -0.66300
Ni232      Ni  0.45490179  0.50853932  0.72096576     1.27400
Ni233      Ni  0.01287303  0.01666067  0.68667183     1.26100
H234        H  0.98800303  0.48169877  0.64142261     0.38800
O235        O  0.99711883  0.23546006  0.75367275    -0.81100
O236        O  0.02341485  0.27873432  0.60391281    -0.65800
O237        O  0.00389656  0.27455012  0.69801218    -1.12400
C238        C  0.40318091  0.18091357  0.64284677     1.05800
O239        O  0.47508403  0.26529067  0.58202208    -0.79000
O240        O  0.42476097  0.24570086  0.61565467    -0.66600
Ni241      Ni  0.02922227  0.27392009  0.73709079     1.34900
C242        C  0.42301793  0.25443594  0.64570897     0.84500
O243        O  0.05437452  0.31475479  0.66502737    -0.79500
O244        O  0.06301297  0.31176240  0.72328958    -0.89800
C245        C  0.49966338  0.26816291  0.57523928     0.84100
O246        O  0.04514026  0.25137315  0.71736792    -0.68000
O247        O  0.41408029  0.18726341  0.61385714    -0.87300
C248        C  0.05071559  0.24973980  0.68658691     0.84900
C249        C  0.07134029  0.32393836  0.69434451     1.06500
H250        H  0.47435954  0.21264262  0.63802611     0.38300
O251        O  0.47101937  0.23000476  0.63963043    -1.10000
O252        O  0.43971508  0.25489852  0.67294270    -0.66600
Ni253      Ni  0.45866600  0.23014870  0.68418185     1.26300
O254        O  0.03637218  0.25378331  0.65992005    -0.66800
O255        O  0.41904676  0.19324680  0.67239543    -0.79100
C256        C  0.46768546  0.22886305  0.75660785     0.84300
O257        O  0.45033352  0.23057312  0.73178402    -0.66300
Ni258      Ni  0.44505398  0.22622722  0.59900457     1.27400
Ni259      Ni  0.01558458  0.27722409  0.65233244     1.26100
H260        H  0.49517463  0.28553304  0.69516909     0.38800
O261        O  0.27007290  0.03193152  0.74901313    -0.81100
O262        O  0.25232754  0.01264750  0.59165847    -0.65800
O263        O  0.24566246  0.03612962  0.68172606    -1.12400
C264        C  0.17915854  0.43533511  0.68322235     1.05800
O265        O  0.20630133  0.49194662  0.57709278    -0.79000
O266        O  0.17056861  0.48665545  0.62575500    -0.66600
Ni267      Ni  0.28078559  0.06227204  0.71341537     1.34900
C268        C  0.16734275  0.49555460  0.65474793     0.84500
O269        O  0.27602940  0.06839444  0.62683370    -0.79500
O270        O  0.29194229  0.09371166  0.68019710    -0.89800
C271        C  0.22836794  0.99786516  0.57026370     0.84100
O272        O  0.30963048  0.05232533  0.69914520    -0.68000
O273        O  0.17340270  0.43663933  0.65051054    -0.87300
C274        C  0.31296093  0.54024494  0.67197387     0.84900
C275        C  0.28969040  0.09351715  0.64686114     1.06500
H276        H  0.23742401  0.47720103  0.64830772     0.38300
O277        O  0.22736246  0.48900920  0.64627004    -1.10000
O278        O  0.18702961  0.50229730  0.68147146    -0.66600
Ni279      Ni  0.22418765  0.50055077  0.69182678     1.26300
O280        O  0.28996941  0.52628946  0.64838993    -0.66800
O281        O  0.19996265  0.45824248  0.70330944    -0.79100
C282        C  0.24923027  0.52534746  0.75819885     0.84300
O283        O  0.22485583  0.51406738  0.73767129    -0.66300
Ni284      Ni  0.19094536  0.46540102  0.61524691     1.27400
Ni285      Ni  0.25080453  0.02553365  0.63699527     1.26100
H286        H  0.23420463  0.04644315  0.67862251     0.38800
O287        O  0.21272095  0.23199058  0.58051450    -0.81100
O288        O  0.22322493  0.25612361  0.74230082    -0.65800
O289        O  0.22645900  0.26745156  0.64389296    -1.12400
C290        C  0.31519600  0.25901083  0.66709464     1.05800
O291        O  0.27195879  0.29225278  0.74947087    -0.79000
O292        O  0.31328342  0.31602637  0.70337261    -0.66600
Ni293      Ni  0.19193633  0.24413987  0.60982422     1.34900
C294        C  0.31103485  0.32599151  0.67362306     0.84500
O295        O  0.18732157  0.26503701  0.69166084    -0.79500
O296        O  0.16749963  0.25377738  0.63522620    -0.89800
C297        C  0.24752510  0.27494007  0.76265781     0.84100
O298        O  0.17415218  0.20400078  0.62984789    -0.68000
O299        O  0.31309192  0.26200348  0.69937667    -0.87300
C300        C  0.17336805  0.19543733  0.66097042     0.84900
C301        C  0.16607527  0.25941226  0.66698170     1.06500
H302        H  0.24871318  0.23196071  0.69146337     0.38300
O303        O  0.25619593  0.25427612  0.68972258    -1.10000
O304        O  0.28968097  0.30874132  0.64918896    -0.66600
Ni305      Ni  0.26104699  0.26287590  0.64204522     1.26300
O306        O  0.19219364  0.21408543  0.68662324    -0.66800
O307        O  0.29607724  0.25821482  0.64244001    -0.79100
C308        C  0.23899221  0.24957814  0.57092554     0.84300
O309        O  0.26161713  0.26860011  0.59287935    -0.66300
Ni310      Ni  0.29116589  0.27610632  0.72351781     1.27400
Ni311      Ni  0.22215284  0.25991966  0.69219152     1.26100
H312        H  0.23327208  0.28953997  0.64140932     0.38800
C313        C  0.32163912  0.14976384  0.65644434    -0.06000
C314        C  0.30697224  0.12426852  0.63161804    -0.00100
C315        C  0.32234693  0.12516811  0.60367747    -0.08600
C316        C  0.35401846  0.14260608  0.60909609    -0.06000
C317        C  0.36987130  0.16086084  0.64067024    -0.00100
C318        C  0.35312441  0.16462521  0.66516338    -0.08500
C319        C  0.36696709  0.18148349  0.70121099     0.61800
H320        H  0.30802266  0.15130758  0.67468337     0.12500
H321        H  0.36618762  0.14168825  0.58857170     0.12500
C322        C  0.30595121  0.10695083  0.56912418     0.62100
F323        F  0.34515535  0.17882524  0.72090038    -0.23100
F324        F  0.38717806  0.21330920  0.69867791    -0.20400
F325        F  0.38166220  0.16816121  0.71920972    -0.20100
F326        F  0.27493851  0.09427523  0.56720695    -0.20200
F327        F  0.31132780  0.08274100  0.56457927    -0.20500
F328        F  0.31652449  0.12720313  0.54243912    -0.23200
C329        C  0.11267434  0.37449564  0.72191982    -0.06000
C330        C  0.10264978  0.35029364  0.69573757    -0.00100
C331        C  0.12321781  0.35179067  0.67329259    -0.08600
C332        C  0.15202056  0.37893182  0.67615129    -0.06000
C333        C  0.15938141  0.40526526  0.69727651    -0.00100
C334        C  0.14093138  0.40266840  0.72269342    -0.08500
C335        C  0.14988431  0.43011593  0.74838061     0.61800
H336        H  0.09722644  0.37223207  0.73995752     0.12500
H337        H  0.16748543  0.38135942  0.65793830     0.12500
C338        C  0.11704036  0.32749627  0.64469380     0.62100
F339        F  0.12949332  0.42144679  0.77247604    -0.23100
F340        F  0.15070027  0.45481663  0.73074154    -0.20400
F341        F  0.17827062  0.44039907  0.76641479    -0.20100
F342        F  0.08864599  0.30066064  0.64207866    -0.20200
F343        F  0.13810820  0.31845691  0.65061127    -0.20500
F344        F  0.12042888  0.34132826  0.61304962    -0.23200
C345        C  0.37069660  0.27922012  0.67945008    -0.06000
C346        C  0.34274436  0.25876811  0.65869612    -0.00100
C347        C  0.34250308  0.23981567  0.63110575    -0.08600
C348        C  0.36956995  0.24039852  0.62717461    -0.06000
C349        C  0.39729351  0.25987341  0.64896403    -0.00100
C350        C  0.39798308  0.28063705  0.67467453    -0.08500
C351        C  0.42745699  0.30499716  0.69627250     0.61800
H352        H  0.37108926  0.29452788  0.69964929     0.12500
H353        H  0.36894745  0.22465543  0.60735642     0.12500
C354        C  0.31381230  0.21853246  0.60627068     0.62100
F355        F  0.42407700  0.32632679  0.71524094    -0.23100
F356        F  0.44944590  0.32196648  0.67465725    -0.20400
F357        F  0.43719513  0.29004750  0.71942778    -0.20100
F358        F  0.30601050  0.23697413  0.58623761    -0.20200
F359        F  0.29020703  0.19883125  0.62487647    -0.20500
F360        F  0.31767303  0.19959555  0.58384401    -0.23200
C361        C  0.10416679  0.26531788  0.70812596    -0.06000
C362        C  0.07839593  0.24784702  0.68286698    -0.00100
C363        C  0.08146393  0.23292116  0.65389751    -0.08600
C364        C  0.11038648  0.23791100  0.64998208    -0.06000
C365        C  0.13663239  0.25651673  0.67442615    -0.00100
C366        C  0.13295726  0.26950608  0.70488600    -0.08500
C367        C  0.15908307  0.28805565  0.73380913     0.61800
H368        H  0.10181192  0.27665360  0.73036922     0.12500
H369        H  0.11246135  0.22669023  0.62743313     0.12500
C370        C  0.05408616  0.21056691  0.62801692     0.62100
F371        F  0.15123090  0.30084697  0.75941771    -0.23100
F372        F  0.18370817  0.31279936  0.72033795    -0.20400
F373        F  0.16739578  0.26815018  0.74950304    -0.20100
F374        F  0.04464285  0.22742990  0.60758998    -0.20200
F375        F  0.03055354  0.18915379  0.64573710    -0.20500
F376        F  0.06061156  0.19348295  0.60618729    -0.23200
C377        C  0.36105014  0.36271506  0.65260423    -0.06000
C378        C  0.33588837  0.35885988  0.66755924    -0.00100
C379        C  0.33764489  0.38599064  0.68199742    -0.08600
C380        C  0.36425679  0.41609258  0.68061623    -0.06000
C381        C  0.38991682  0.42010930  0.66661780    -0.00100
C382        C  0.38824182  0.39282794  0.65230776    -0.08500
C383        C  0.41557761  0.39520957  0.63880495     0.61800
H384        H  0.35977521  0.34158605  0.64269361     0.12500
H385        H  0.36561601  0.43689352  0.69170674     0.12500
C386        C  0.31168913  0.38283669  0.69974310     0.62100
F387        F  0.41034040  0.36566887  0.62933822    -0.23100
F388        F  0.44039434  0.40958598  0.66438584    -0.20400
F389        F  0.42231462  0.41300301  0.60987948    -0.20100
F390        F  0.30789276  0.36510209  0.72854693    -0.20200
F391        F  0.28510518  0.36782668  0.67677711    -0.20500
F392        F  0.31704073  0.41205548  0.71082329    -0.23200
C393        C  0.14077060  0.13926146  0.63940765    -0.06000
C394        C  0.14796530  0.16215682  0.66585098    -0.00100
C395        C  0.12717536  0.15409751  0.69076341    -0.08600
C396        C  0.09871328  0.12473559  0.68592076    -0.06000
C397        C  0.09049913  0.10283470  0.65752736    -0.00100
C398        C  0.11310371  0.10975137  0.63497976    -0.08500
C399        C  0.10907865  0.08645141  0.60618729     0.61800
H400        H  0.15696946  0.14539673  0.62098339     0.12500
H401        H  0.08236380  0.11895843  0.70403582     0.12500
C402        C  0.13458444  0.17645992  0.72196088     0.62100
F403        F  0.13572319  0.09652949  0.59189608    -0.23100
F404        F  0.08740898  0.08301001  0.57944142    -0.20400
F405        F  0.10061245  0.05745370  0.61952883    -0.20100
F406        F  0.13816202  0.20456028  0.71093935    -0.20200
F407        F  0.16117698  0.18249367  0.74149434    -0.20500
F408        F  0.11179635  0.16384797  0.74335616    -0.23200
C409        C  0.39357848  0.05443696  0.68673201    -0.06000
C410        C  0.39314659  0.53040669  0.66540785    -0.00100
C411        C  0.36872004  0.51883012  0.63763972    -0.08600
C412        C  0.34353482  0.52275720  0.64057944    -0.06000
C413        C  0.34063948  0.53659082  0.67085968    -0.00100
C414        C  0.36829494  0.05768133  0.68995622    -0.08500
C415        C  0.37350197  0.08472040  0.71410724     0.61800
H416        H  0.41478628  0.06938013  0.70337070     0.12500
H417        H  0.32549226  0.51448442  0.61904397     0.12500
C418        C  0.36853137  0.50134813  0.60548015     0.62100
F419        F  0.40394291  0.10484437  0.72665819    -0.23100
F420        F  0.35780911  0.07273000  0.74251828    -0.20400
F421        F  0.36593221  0.58836804  0.73176232    -0.20100
F422        F  0.36790420  0.96832144  0.62791309    -0.20200
F423        F  0.39331130  0.52126891  0.58857900    -0.20500
F424        F  0.34247595  0.49090857  0.58218541    -0.23200
C425        C  0.08522117  0.47941258  0.63875002    -0.06000
C426        C  0.08506141  0.49923044  0.66452005    -0.00100
C427        C  0.10765033  0.01168186  0.68715783    -0.08600
C428        C  0.13338515  0.00886844  0.68434562    -0.06000
C429        C  0.13877704  0.49670300  0.65740079    -0.00100
C430        C  0.11098469  0.47755734  0.63465256    -0.08500
C431        C  0.10766275  0.45458141  0.60594093     0.61800
H432        H  0.06464728  0.46565054  0.62073149     0.12500
H433        H  0.15357784  0.02195762  0.70305657     0.12500
C434        C  0.10901653  0.03276245  0.71647505     0.62100
F435        F  0.07797991  0.43603484  0.59001914    -0.23100
F436        F  0.11620906  0.43422213  0.61975974    -0.20400
F437        F  0.12544143  0.47127140  0.58034623    -0.20100
F438        F  0.08626009  0.01479113  0.73686331    -0.20200
F439        F  0.10521507  0.05646750  0.70287356    -0.20500
F440        F  0.13656771  0.04699925  0.73778135    -0.23200
C441        C  0.27245437  0.29301114  0.86211584    -0.06000
C442        C  0.24453492  0.27572469  0.87527600    -0.00100
C443        C  0.21737292  0.26137968  0.85124152    -0.08600
C444        C  0.21944345  0.26234595  0.81503352    -0.06000
C445        C  0.24754102  0.27768570  0.80164759    -0.00100
C446        C  0.27472493  0.29437172  0.82601027    -0.08500
C447        C  0.30645747  0.31278228  0.81487902     0.61800
H448        H  0.29290571  0.30419355  0.88066156     0.12500
H449        H  0.19879084  0.25025103  0.79684013     0.12500
C450        C  0.18610642  0.24508388  0.86336610     0.62100
F451        F  0.32904006  0.32668590  0.84304399    -0.23100
F452        F  0.30929718  0.33694322  0.79446367    -0.20400
F453        F  0.31166209  0.29254630  0.79658501    -0.20100
F454        F  0.18583472  0.26363238  0.88977553    -0.20200
F455        F  0.17869881  0.21585119  0.87525943    -0.20500
F456        F  0.16381399  0.24024136  0.83661951    -0.23200
C457        C  0.30169778  0.38157218  0.00597274    -0.06000
C458        C  0.28514399  0.36175722  0.03128341    -0.00100
C459        C  0.27391482  0.37242219  0.05615824    -0.08600
C460        C  0.27680100  0.40192083  0.05199959    -0.06000
C461        C  0.28973555  0.41955373  0.02358962    -0.00100
C462        C  0.30470370  0.41087131  0.00212753    -0.08500
C463        C  0.32176775  0.43061947  0.97321769     0.61800
H464        H  0.31152880  0.37360376  0.98825247     0.12500
H465        H  0.26591332  0.40962862  0.06833553     0.12500
C466        C  0.25698219  0.35192529  0.08486095     0.62100
F467        F  0.34919654  0.43217797  0.97423717    -0.23100
F468        F  0.32801436  0.46134698  0.97639208    -0.20400
F469        F  0.30462883  0.41655901  0.94138029    -0.20100
F470        F  0.27651001  0.34731377  0.10776261    -0.20200
F471        F  0.23296415  0.32283775  0.07054939    -0.20500
F472        F  0.24534991  0.36586110  0.10374597    -0.23200
C473        C  0.23824494  0.09037770  0.94624498    -0.06000
C474        C  0.21867336  0.07215197  0.97039038    -0.00100
C475        C  0.20464138  0.08417896  0.98890400    -0.08600
C476        C  0.21492515  0.11622168  0.98750654    -0.06000
C477        C  0.23801217  0.13582727  0.96743209    -0.00100
C478        C  0.24854999  0.12264726  0.94456583    -0.08500
C479        C  0.27200155  0.14273349  0.92065611     0.61800
H480        H  0.24828348  0.08020142  0.93194917     0.12500
H481        H  0.20531870  0.12617710  0.00295343     0.12500
C482        C  0.17993038  0.06439616  0.01147231     0.62100
F483        F  0.28175752  0.12559300  0.90412439    -0.23100
F484        F  0.29707981  0.16824244  0.93973311    -0.20400
F485        F  0.25953060  0.15371275  0.89519982    -0.20100
F486        F  0.19010278  0.07623664  0.04578444    -0.20200
F487        F  0.17123515  0.03280126  0.00965404    -0.20500
F488        F  0.15459498  0.06603374  0.00039131    -0.23200
C489        C  0.23239357  0.01651330  0.85522680    -0.06000
C490        C  0.24418744  0.50175857  0.86450462    -0.00100
C491        C  0.26492970  0.49986706  0.84538194    -0.08600
C492        C  0.26643162  0.50886448  0.81097902    -0.06000
C493        C  0.24764836  0.51906197  0.79529127    -0.00100
C494        C  0.23252726  0.02405761  0.82018558    -0.08500
C495        C  0.22268344  0.04679835  0.80788351     0.61800
H496        H  0.22558418  0.02727379  0.87362345     0.12500
H497        H  0.28166288  0.50697027  0.79559109     0.12500
C498        C  0.28564735  0.48876683  0.86125953     0.62100
F499        F  0.21532278  0.05863448  0.83495366    -0.23100
F500        F  0.19732776  0.03125884  0.78314923    -0.20400
F501        F  0.24599189  0.07213370  0.79334736    -0.20100
F502        F  0.26849521  0.45688958  0.86719188    -0.20200
F503        F  0.30152415  0.50595225  0.89242630    -0.20500
F504        F  0.30667134  0.49275219  0.83952622    -0.23200
C505        C  0.33723695  0.11200045  0.98217911    -0.06000
C506        C  0.33123398  0.08983119  0.00782822    -0.00100
C507        C  0.35581355  0.09315893  0.03112262    -0.08600
C508        C  0.38481708  0.11996825  0.03022076    -0.06000
C509        C  0.39106487  0.14305050  0.00572364    -0.00100
C510        C  0.36693297  0.13854297  0.98043513    -0.08500
C511        C  0.37210538  0.16192626  0.95261572     0.61800
H512        H  0.31829429  0.10875552  0.96400737     0.12500
H513        H  0.40304863  0.12310967  0.04948473     0.12500
C514        C  0.35178355  0.06891953  0.05753567     0.62100
F515        F  0.34521094  0.15443274  0.93261523    -0.23100
F516        F  0.39115154  0.16166395  0.93053384    -0.20400
F517        F  0.38508290  0.19212000  0.96806279    -0.20100
F518        F  0.33366223  0.03845517  0.04220041    -0.20200
F519        F  0.33853761  0.07261765  0.08459419    -0.20500
F520        F  0.37930468  0.07269277  0.07126032    -0.23200
C521        C  0.14672329  0.39449632  0.97535864    -0.06000
C522        C  0.17098693  0.39477981  0.99507739    -0.00100
C523        C  0.16511495  0.36924127  0.01638388    -0.08600
C524        C  0.13488189  0.34320432  0.01550071    -0.06000
C525        C  0.11062465  0.34208525  0.99409676    -0.00100
C526        C  0.11659731  0.36914878  0.97488874    -0.08500
C527        C  0.09183845  0.37204394  0.95344868     0.61800
H528        H  0.15173991  0.41442505  0.95960937     0.12500
H529        H  0.13014461  0.32301655  0.03061086     0.12500
C530        C  0.19081266  0.36871721  0.03841334     0.62100
F531        F  0.10211594  0.40304405  0.94529993    -0.23100
F532        F  0.06754194  0.36253620  0.97191314    -0.20400
F533        F  0.08220240  0.35368581  0.92250218    -0.20100
F534        F  0.20502484  0.39376518  0.06335987    -0.20200
F535        F  0.21163490  0.37119185  0.01730570    -0.20500
F536        F  0.18051476  0.34093218  0.05545787    -0.23200
C537        C  0.45252568  0.24006099  0.84826574    -0.06000
C538        C  0.46255903  0.22226337  0.86723803    -0.00100
C539        C  0.96834123  0.20034547  0.84992419    -0.08600
C540        C  0.96935271  0.20337317  0.81364110    -0.06000
C541        C  0.46000235  0.22288556  0.79320593    -0.00100
C542        C  0.45085647  0.24052888  0.81157593    -0.08500
C543        C  0.44151303  0.26157191  0.79294003     0.61800
H544        H  0.44745452  0.25501354  0.86271574     0.12500
H545        H  0.97623446  0.19007266  0.79913592     0.12500
C546        C  0.97538312  0.17719306  0.86778771     0.62100
F547        F  0.43337682  0.27662719  0.81550700    -0.23100
F548        F  0.41670096  0.24341595  0.76818281    -0.20400
F549        F  0.46556179  0.28461040  0.77710902    -0.20100
F550        F  0.95122463  0.15613038  0.88494854    -0.20200
F551        F  0.00142667  0.19348847  0.89145855    -0.20500
F552        F  0.97997284  0.15965973  0.84421460    -0.23200
C553        C  0.41896020  0.38283969  0.02624057    -0.06000
C554        C  0.42192734  0.39882670  0.99546179    -0.00100
C555        C  0.39645697  0.38517705  0.96889664    -0.08600
C556        C  0.36882917  0.35734517  0.97511690    -0.06000
C557        C  0.36565036  0.34151747  0.00625528    -0.00100
C558        C  0.39194570  0.35421175  0.03184278    -0.08500
C559        C  0.39234824  0.33781669  0.06505509     0.61800
H560        H  0.43865285  0.39263852  0.04588072     0.12500
H561        H  0.34918771  0.34787278  0.95548017     0.12500
C562        C  0.39799441  0.39999803  0.93413373     0.62100
F563        F  0.42168808  0.34963477  0.08117831    -0.23100
F564        F  0.37948454  0.30568152  0.05749980    -0.20400
F565        F  0.37648346  0.34244854  0.08837189    -0.20100
F566        F  0.41683565  0.39604115  0.91499075    -0.20200
F567        F  0.40905282  0.43200521  0.93955987    -0.20500
F568        F  0.36968296  0.38615565  0.91445673    -0.23200
C569        C  0.11349630  0.10848151  0.97092722    -0.06000
C570        C  0.10983940  0.09681866  0.00426100    -0.00100
C571        C  0.13398870  0.11410631  0.03166185    -0.08600
C572        C  0.16053050  0.14258236  0.02466138    -0.06000
C573        C  0.16399957  0.15485922  0.99137555    -0.00100
C574        C  0.13943248  0.13741322  0.96400350    -0.08500
C575        C  0.13951342  0.14916106  0.92756206     0.61800
H576        H  0.09504829  0.09508287  0.95022308     0.12500
H577        H  0.17912624  0.15528913  0.04539197     0.12500
C578        C  0.13238224  0.10204866  0.06800430     0.62100
F579        F  0.11111821  0.13212970  0.90803439    -0.23100
F580        F  0.15957917  0.14602634  0.90984272    -0.20400
F581        F  0.14766913  0.18057434  0.92976913    -0.20100
F582        F  0.12253728  0.07013306  0.06595308    -0.20200
F583        F  0.11255498  0.10641968  0.08470199    -0.20500
F584        F  0.16047676  0.11792593  0.08817958    -0.23200
C585        C  0.49195325  0.36721459  0.02179520    -0.06000
C586        C  0.01507153  0.39200341  0.01862959    -0.00100
C587        C  0.03958785  0.38936458  0.03367712    -0.08600
C588        C  0.03611246  0.35930972  0.03201482    -0.06000
C589        C  0.00948664  0.33299224  0.01483084    -0.00100
C590        C  0.49018671  0.33805084  0.01873025    -0.08500
C591        C  0.46001324  0.30702969  0.01841372     0.61800
H592        H  0.47137763  0.36770805  0.02191344     0.12500
H593        H  0.05522725  0.35680787  0.04085153     0.12500
C594        C  0.06966364  0.41817329  0.04896218     0.62100
F595        F  0.43669021  0.31191972  0.02296913    -0.23100
F596        F  0.46226732  0.28949557  0.04518403    -0.20400
F597        F  0.45256426  0.28984243  0.98701053    -0.20100
F598        F  0.06514777  0.43195075  0.07678357    -0.20200
F599        F  0.08159910  0.44002803  0.02395817    -0.20500
F600        F  0.09082134  0.41023619  0.06086072    -0.23200
C601        C  0.47858945  0.08920915  0.98413830    -0.06000
C602        C  0.00416998  0.09295832  0.98298499    -0.00100
C603        C  0.02746198  0.12472418  0.97952228    -0.08600
C604        C  0.02117252  0.14877363  0.98325755    -0.06000
C605        C  0.99260680  0.14142266  0.99082470    -0.00100
C606        C  0.47113086  0.11242975  0.98642812    -0.08500
C607        C  0.43843371  0.10256873  0.98806733     0.61800
H608        H  0.46121277  0.06435801  0.98491256     0.12500
H609        H  0.03904414  0.17348165  0.98298184     0.12500
C610        C  0.05921093  0.13315808  0.97454604     0.62100
F611        F  0.41851076  0.07056990  0.97892396    -0.23100
F612        F  0.43052271  0.11946663  0.96540956    -0.20400
F613        F  0.43531615  0.10854723  0.02164744    -0.20100
F614        F  0.05767162  0.11485462  0.94662281    -0.20200
F615        F  0.07240461  0.12747483  0.00437781    -0.20500
F616        F  0.07756239  0.16476366  0.96787375    -0.23200
C617        C  0.02134662  0.03248905  0.85378782    -0.06000
C618        C  0.02042108  0.51254256  0.86991591    -0.00100
C619        C  0.50430572  0.47542760  0.84349311    -0.08600
C620        C  0.50455210  0.47974360  0.80758625    -0.06000
C621        C  0.01764001  0.52053691  0.79760089    -0.00100
C622        C  0.02140967  0.03752705  0.81787909    -0.08500
C623        C  0.02614259  0.06849522  0.80475619     0.61800
H624        H  0.02398432  0.05053382  0.87202819     0.12500
H625        H  0.49679294  0.45967682  0.78932939     0.12500
C626        C  0.49532409  0.44281545  0.85597127     0.62100
F627        F  0.03096874  0.08948119  0.83177407    -0.23100
F628        F  0.00085358  0.06281317  0.78253105    -0.20400
F629        F  0.05129608  0.08265610  0.78693596    -0.20100
F630        F  0.46708897  0.42862995  0.86753139    -0.20200
F631        F  0.51678594  0.44561159  0.88263594    -0.20500
F632        F  0.49353835  0.42287396  0.82962681    -0.23200
C633        C  0.22848005  0.21501610  0.51818286    -0.06000
C634        C  0.24288255  0.24592580  0.53378746    -0.00100
C635        C  0.25840748  0.27208718  0.51301384    -0.08600
C636        C  0.25849474  0.26627432  0.47726205    -0.06000
C637        C  0.24456680  0.23535397  0.46188102    -0.00100
C638        C  0.22945262  0.20920126  0.48277687    -0.08500
C639        C  0.21376193  0.17522600  0.46765501     0.61800
H640        H  0.21664930  0.19524844  0.53425329     0.12500
H641        H  0.27017900  0.28599965  0.46108910     0.12500
C642        C  0.27439347  0.30600737  0.52830504     0.62100
F643        F  0.19703990  0.15354348  0.49104201    -0.23100
F644        F  0.23521566  0.16877030  0.45917157    -0.20400
F645        F  0.19409086  0.17085961  0.43808497    -0.20100
F646        F  0.29874526  0.31206276  0.55248796    -0.20200
F647        F  0.25435786  0.31057670  0.54433587    -0.20500
F648        F  0.28541912  0.32777180  0.50301101    -0.23200
C649        C  0.25587451  0.20131219  0.17933672    -0.06000
C650        C  0.26717956  0.23074207  0.19741980    -0.00100
C651        C  0.28443788  0.25895431  0.18021381    -0.08600
C652        C  0.28756611  0.25662133  0.14484207    -0.06000
C653        C  0.27459860  0.22724921  0.12584809    -0.00100
C654        C  0.25947088  0.19904870  0.14382282    -0.08500
C655        C  0.24805821  0.16688072  0.12605425     0.61800
H656        H  0.24335701  0.17996184  0.19300109     0.12500
H657        H  0.29965109  0.27819305  0.13140956     0.12500
C658        C  0.30025471  0.29158602  0.19919155     0.62100
F659        F  0.23774051  0.14314217  0.14930254    -0.23100
F660        F  0.27143752  0.16749701  0.11141487    -0.20400
F661        F  0.22432416  0.15936546  0.10028529    -0.20100
F662        F  0.31692468  0.29209275  0.22991158    -0.20200
F663        F  0.27904089  0.29877940  0.20655083    -0.20500
F664        F  0.32010220  0.31517959  0.17945377    -0.23200
C665        C  0.22783996  0.46451103  0.48134458    -0.06000
C666        C  0.24216869  0.49125216  0.46176230    -0.00100
C667        C  0.24678062  0.01970351  0.47943848    -0.08600
C668        C  0.24304353  0.02123963  0.51455735    -0.06000
C669        C  0.23493856  0.49784626  0.53139297    -0.00100
C670        C  0.22405117  0.46730016  0.51618301    -0.08500
C671        C  0.20934492  0.43800115  0.53705774     0.61800
H672        H  0.21948079  0.44131983  0.46902486     0.12500
H673        H  0.24935827  0.04355614  0.52745924     0.12500
C674        C  0.26003349  0.04991993  0.45989806     0.62100
F675        F  0.20260292  0.41098183  0.51807055    -0.23100
F676        F  0.18255450  0.43322654  0.54682222    -0.20400
F677        F  0.22890788  0.44199043  0.56659183    -0.20100
F678        F  0.23825443  0.04774871  0.43411613    -0.20200
F679        F  0.28497231  0.05453948  0.44515993    -0.20500
F680        F  0.26951263  0.07643175  0.48164152    -0.23200
C681        C  0.24348445  0.33423893  0.35688482    -0.06000
C682        C  0.25160673  0.32793074  0.32565365    -0.00100
C683        C  0.25978349  0.35108647  0.30020286    -0.08600
C684        C  0.25856094  0.37854367  0.30666468    -0.06000
C685        C  0.24981433  0.38439809  0.33761921    -0.00100
C686        C  0.24195296  0.36151087  0.36318150    -0.08500
C687        C  0.23123834  0.36516430  0.39685129     0.61800
H688        H  0.23793106  0.31730972  0.37662691     0.12500
H689        H  0.26513210  0.39622098  0.28747244     0.12500
C690        C  0.27050084  0.34763123  0.26644296     0.62100
F691        F  0.21781822  0.33714747  0.41370241    -0.23100
F692        F  0.20987105  0.37372833  0.38989070    -0.20400
F693        F  0.25569508  0.38811304  0.41920815    -0.20100
F694        F  0.24594993  0.32507194  0.24384624    -0.20200
F695        F  0.29166536  0.33876475  0.27316318    -0.20500
F696        F  0.28422193  0.37582009  0.24994809    -0.23200
C697        C  0.27782705  0.13228538  0.34394366    -0.06000
C698        C  0.25385305  0.13740737  0.33413593    -0.00100
C699        C  0.22529727  0.11125424  0.31956711    -0.08600
C700        C  0.22204388  0.08122481  0.31466527    -0.06000
C701        C  0.24594174  0.07599853  0.32477182    -0.00100
C702        C  0.27441919  0.10213358  0.33970435    -0.08500
C703        C  0.30136724  0.09851432  0.35033791     0.61800
H704        H  0.29956838  0.15240036  0.35503355     0.12500
H705        H  0.20021528  0.06108582  0.30384414     0.12500
C706        C  0.19786891  0.11450887  0.31136873     0.62100
F707        F  0.32773456  0.12742291  0.36052065    -0.23100
F708        F  0.30638565  0.08509327  0.32259260    -0.20400
F709        F  0.29566406  0.07932770  0.37804786    -0.20100
F710        F  0.20289641  0.13580489  0.28594504    -0.20200
F711        F  0.19266195  0.12518828  0.34124131    -0.20500
F712        F  0.17186393  0.08586327  0.29939715    -0.23200
C713        C  0.23782640  0.45727518  0.14275735    -0.06000
C714        C  0.25877629  0.98531343  0.13527050    -0.00100
C715        C  0.28365232  0.00494740  0.16074031    -0.08600
C716        C  0.28027835  0.99893156  0.19578724    -0.06000
C717        C  0.25302157  0.97416065  0.20542281    -0.00100
C718        C  0.23483206  0.45217492  0.17814773    -0.08500
C719        C  0.20866038  0.42155162  0.18923146     0.61800
H720        H  0.22060571  0.43990033  0.12302945     0.12500
H721        H  0.29808936  0.01484849  0.21604906     0.12500
C722        C  0.31330268  0.03234739  0.15113402     0.62100
F723        F  0.19116227  0.40028154  0.16103086    -0.23100
F724        F  0.19011207  0.42788221  0.20609418    -0.20400
F725        F  0.22002026  0.40735526  0.21165855    -0.20100
F726        F  0.30898489  0.05615585  0.13915673    -0.20200
F727        F  0.32329231  0.02191931  0.12558542    -0.20500
F728        F  0.33583296  0.04498724  0.17941705    -0.23200
C729        C  0.03330937  0.27911834  0.49153375    -0.06000
C730        C  0.50675143  0.26520052  0.46425888    -0.00100
C731        C  0.49310172  0.28069660  0.47780235    -0.08600
C732        C  0.49296030  0.28267148  0.51432450    -0.06000
C733        C  0.50533339  0.26933420  0.53784053    -0.00100
C734        C  0.03448241  0.28511289  0.52757014    -0.08500
C735        C  0.06492018  0.30076730  0.55024144     0.61800
H736        H  0.05365034  0.28377386  0.48110525     0.12500
H737        H  0.48237924  0.29413382  0.52487956     0.12500
C738        C  0.47789863  0.29430076  0.45421213     0.62100
F739        F  0.08884526  0.31150653  0.53065622    -0.23100
F740        F  0.06583995  0.27933684  0.57239938    -0.20400
F741        F  0.06916626  0.32661027  0.56935272    -0.20100
F742        F  0.45562063  0.27090864  0.43022564    -0.20200
F743        F  0.49933160  0.31894072  0.43697898    -0.20500
F744        F  0.46418025  0.30608462  0.47273211    -0.23200
C745        C  0.35657709  0.21780084  0.31660185    -0.06000
C746        C  0.35750334  0.24518238  0.32766496    -0.00100
C747        C  0.38525305  0.27414095  0.33612194    -0.08600
C748        C  0.41201633  0.27462422  0.33385581    -0.06000
C749        C  0.41113071  0.24710255  0.32358618    -0.00100
C750        C  0.38338595  0.21820316  0.31465883    -0.08500
C751        C  0.38231405  0.18793539  0.30497646     0.61800
H752        H  0.33471479  0.19587973  0.31088624     0.12500
H753        H  0.43388030  0.29650520  0.33984547     0.12500
C754        C  0.38637963  0.30417195  0.34693441     0.62100
F755        F  0.35273503  0.16231073  0.29816122    -0.23100
F756        F  0.39715148  0.18111264  0.33225272    -0.20400
F757        F  0.39637888  0.19156834  0.27552858    -0.20100
F758        F  0.37452314  0.30053259  0.37807603    -0.20200
F759        F  0.36947951  0.31025463  0.32153119    -0.20500
F760        F  0.41584254  0.33022900  0.35138305    -0.23200
C761        C  0.13205915  0.25551265  0.36594073    -0.06000
C762        C  0.11191722  0.25208946  0.33659533    -0.00100
C763        C  0.11200441  0.23809904  0.30473817    -0.08600
C764        C  0.13280011  0.22854144  0.30367787    -0.06000
C765        C  0.15337021  0.23251758  0.33282876    -0.00100
C766        C  0.15215000  0.24494469  0.36516930    -0.08500
C767        C  0.17124971  0.24691136  0.39893369     0.61800
H768        H  0.13122416  0.26580852  0.39010507     0.12500
H769        H  0.13358423  0.21826447  0.27948028     0.12500
C770        C  0.09003267  0.23220072  0.27212298     0.62100
F771        F  0.16451177  0.25806991  0.42720408    -0.23100
F772        F  0.20168090  0.26728784  0.39637946    -0.20400
F773        F  0.16576369  0.21706081  0.40582665    -0.20100
F774        F  0.09391818  0.26063436  0.26144824    -0.20200
F775        F  0.06050661  0.21211150  0.27892506    -0.20500
F776        F  0.09455456  0.21806616  0.24456934    -0.23200
C777        C  0.54318923  0.28333038  0.14388928    -0.06000
C778        C  0.03765403  0.25362760  0.13318313    -0.00100
C779        C  0.03654320  0.23143831  0.15754008    -0.08600
C780        C  0.03434537  0.23626778  0.19282892    -0.06000
C781        C  0.03398720  0.26269801  0.20520876    -0.00100
C782        C  0.54175880  0.28865100  0.17929906    -0.08500
C783        C  0.54579227  0.32000775  0.19102339     0.61800
H784        H  0.54481904  0.30053688  0.12550874     0.12500
H785        H  0.03158016  0.21842488  0.21084498     0.12500
C786        C  0.03761496  0.20258286  0.14694131     0.62100
F787        F  0.55685917  0.34204984  0.16598557    -0.23100
F788        F  0.56642616  0.33272869  0.22097156    -0.20400
F789        F  0.51815907  0.31542146  0.19730100    -0.20100
F790        F  0.06078191  0.21142680  0.12663988    -0.20200
F791        F  0.01012064  0.17999456  0.12854123    -0.20500
F792        F  0.04315958  0.18871433  0.17564969    -0.23200
C793        C  0.96218707  0.02236183  0.50723031    -0.06000
C794        C  0.46572827  0.00822293  0.52911906    -0.00100
C795        C  0.45953547  0.47920241  0.51467831    -0.08600
C796        C  0.46565086  0.47808552  0.48016619    -0.06000
C797        C  0.47881415  0.50527441  0.46075265    -0.00100
C798        C  0.96774221  0.02133374  0.47229998    -0.08500
C799        C  0.96577701  0.04433402  0.44769100     0.61800
H800        H  0.95824291  0.04036483  0.51632727     0.12500
H801        H  0.46108026  0.45596989  0.46843097     0.12500
C802        C  0.44641343  0.44952320  0.53488761     0.62100
F803        F  0.95608903  0.06208160  0.46306379    -0.23100
F804        F  0.94517958  0.02774919  0.41855356    -0.20400
F805        F  0.99410147  0.06520609  0.43784776    -0.20100
F806        F  0.41906722  0.44292119  0.54486194    -0.20200
F807        F  0.46637003  0.45404238  0.56420896    -0.20500
F808        F  0.44108535  0.42345148  0.51516769    -0.23200
C809        C  0.03026890  0.40293700  0.36145921    -0.06000
C810        C  0.00979676  0.40925027  0.34138026    -0.00100
C811        C  0.48768626  0.38611073  0.31619839    -0.08600
C812        C  0.48812720  0.35808098  0.31030891    -0.06000
C813        C  0.00893119  0.35109435  0.33033166    -0.00100
C814        C  0.03059862  0.37475701  0.35616717    -0.08500
C815        C  0.05476229  0.37102031  0.37742661     0.61800
H816        H  0.04675476  0.42085936  0.38121609     0.12500
H817        H  0.47077547  0.33974714  0.29150828     0.12500
C818        C  0.46348368  0.39035714  0.29591370     0.62100
F819        F  0.07710304  0.39907740  0.39564523    -0.23100
F820        F  0.06875114  0.36205433  0.35564589    -0.20400
F821        F  0.04159248  0.34826313  0.40123286    -0.20100
F822        F  0.47690288  0.41568593  0.27506109    -0.20200
F823        F  0.44803211  0.39614326  0.31881066    -0.20500
F824        F  0.44250835  0.36367892  0.27466514    -0.23200
C825        C  0.03254973  0.15298170  0.35660615    -0.06000
C826        C  0.01148465  0.15983779  0.33916399    -0.00100
C827        C  0.48539731  0.13427104  0.31591370    -0.08600
C828        C  0.48336020  0.10468954  0.31155380    -0.06000
C829        C  0.00519908  0.09880653  0.32936349    -0.00100
C830        C  0.02991041  0.12309294  0.35223669    -0.08500
C831        C  0.05400310  0.11795265  0.37122327     0.61800
H832        H  0.05155139  0.17163041  0.37369200     0.12500
H833        H  0.46321980  0.08500920  0.29693965     0.12500
C834        C  0.45909757  0.13784290  0.30154425     0.62100
F835        F  0.07788085  0.14553206  0.38876825    -0.23100
F836        F  0.06570649  0.10771567  0.34760251    -0.20400
F837        F  0.04141913  0.09546690  0.39541971    -0.20100
F838        F  0.46819921  0.16012448  0.27670439    -0.20200
F839        F  0.44966178  0.14767464  0.32827272    -0.20500
F840        F  0.43448203  0.10954568  0.28624949    -0.23200
C841        C  0.40485709  0.02016882  0.33734736    -0.06000
C842        C  0.40317862  0.99533735  0.31804657    -0.00100
C843        C  0.38286362  0.46538035  0.33788646    -0.08600
C844        C  0.35633537  0.46480690  0.34246579    -0.06000
C845        C  0.34859582  0.48486706  0.32479152    -0.00100
C846        C  0.37861948  0.01936968  0.34375205    -0.08500
C847        C  0.38122094  0.04689749  0.36442895     0.61800
H848        H  0.42704772  0.04009523  0.34769094     0.12500
H849        H  0.34141287  0.44872353  0.36021617     0.12500
C850        C  0.38973658  0.44225154  0.35632451     0.62100
F851        F  0.41122130  0.07124974  0.37293781    -0.23100
F852        F  0.36877328  0.03688727  0.39518190    -0.20400
F853        F  0.36603022  0.05895962  0.34487276    -0.20100
F854        F  0.41471522  0.45823565  0.38142535    -0.20200
F855        F  0.39549420  0.42611151  0.33228560    -0.20500
F856        F  0.36552798  0.42003566  0.37270055    -0.23200
C857        C  0.15368021  0.00919033  0.35525564    -0.06000
C858        C  0.14567732  0.98010362  0.33880462    -0.00100
C859        C  0.11712388  0.46156353  0.32210033    -0.08600
C860        C  0.09657108  0.47071823  0.32782160    -0.06000
C861        C  0.10611327  0.49945923  0.34617196    -0.00100
C862        C  0.13165685  0.01664151  0.35949740    -0.08500
C863        C  0.14052007  0.04841925  0.37629943     0.61800
H864        H  0.17748022  0.02649804  0.36360017     0.12500
H865        H  0.07272502  0.45549719  0.31782080     0.12500
C866        C  0.10589545  0.43033010  0.30196055     0.62100
F867        F  0.17160376  0.06745330  0.38592474    -0.23100
F868        F  0.12624218  0.04374260  0.40579441    -0.20400
F869        F  0.13159692  0.06419312  0.35310050    -0.20100
F870        F  0.11614468  0.41311167  0.32048036    -0.20200
F871        F  0.11650699  0.43602025  0.26987478    -0.20500
F872        F  0.07443273  0.41197491  0.29622595    -0.23200
C873        C  0.50969666  0.97452226  0.18791760    -0.06000
C874        C  0.02830055  0.00585740  0.20828666    -0.00100
C875        C  0.04503023  0.53650961  0.18983675    -0.08600
C876        C  0.04638505  0.53235430  0.15432906    -0.06000
C877        C  0.03316453  0.50211844  0.13708933    -0.00100
C878        C  0.50996810  0.97086850  0.15168381    -0.08500
C879        C  0.48795651  0.93866972  0.13265470     0.61800
H880        H  0.49337891  0.95483356  0.20144833     0.12500
H881        H  0.05677382  0.55316657  0.13936990     0.12500
C882        C  0.05861735  0.56995331  0.20585349     0.62100
F883        F  0.44431243  0.44873442  0.15343580    -0.23100
F884        F  0.46545771  0.43595722  0.11440453    -0.20400
F885        F  0.46700612  0.94054911  0.10909228    -0.20100
F886        F  0.07568086  0.57402591  0.23764297    -0.20200
F887        F  0.04877944  0.07675546  0.21660976    -0.20500
F888        F  0.08841096  0.08697938  0.18918923    -0.23200
O889        O  0.99701505  0.98076802  0.42286650    -0.81100
O890        O  0.02585878  0.99145842  0.26752482    -0.65800
O891        O  0.02951176  0.51482839  0.36390436    -1.12400
C892        C  0.43280341  0.49410357  0.31378397     1.05800
O893        O  0.52005727  0.53000724  0.25474616    -0.79000
O894        O  0.49217730  0.55357879  0.29001780    -0.66600
Ni895      Ni  0.03067423  0.98703619  0.39914129     1.34900
C896        C  0.50221674  0.56723578  0.32044818     0.84500
O897        O  0.06824343  0.50891272  0.32451176    -0.79500
O898        O  0.06505048  0.99117734  0.37993780    -0.89800
C899        C  0.02498966  0.51127196  0.24599431     0.84100
O900        O  0.00595903  0.94535198  0.37649281    -0.68000
O901        O  0.44139903  0.49536360  0.28387018    -0.87300
C902        C  0.00566709  0.93653838  0.34553760     0.84900
C903        C  0.07654430  0.99902329  0.35138802     1.06500
H904        H  0.47262492  0.97106907  0.30445431     0.38300
O905        O  0.48737504  0.99360113  0.30756708    -1.10000
O906        O  0.50653906  0.55338634  0.34646137    -0.66600
Ni907      Ni  0.48967200  0.50848815  0.35473037     1.26300
O908        O  0.01135907  0.95504414  0.32058832    -0.66800
O909        O  0.44837130  0.00126191  0.34342007    -0.79100
C910        C  0.48858016  0.00124433  0.42572150     0.84300
O911        O  0.48844350  0.51927929  0.40169026    -0.66300
Ni912      Ni  0.48101704  0.51268747  0.27032985     1.27400
Ni913      Ni  0.02615762  0.00002939  0.31598399     1.26100
H914        H  0.04457480  0.53722473  0.36786188     0.38800
O915        O  0.02035009  0.74437352  0.42687308    -0.81100
O916        O  0.03542707  0.75022396  0.26580781    -0.65800
O917        O  0.03915992  0.77040638  0.36255959    -1.11200
C918        C  0.43918415  0.74856208  0.31841634     1.05800
O919        O  0.01933006  0.78229184  0.25254365    -0.79000
O920        O  0.49346717  0.80505453  0.28793775    -0.66600
Ni921      Ni  0.05026393  0.74986125  0.39766018     1.34900
C922        C  0.00416103  0.81782377  0.32455108     0.84500
O923        O  0.07915781  0.77131369  0.32021706    -0.79500
O924        O  0.08188594  0.75405705  0.37320677    -0.89800
C925        C  0.03056959  0.76645038  0.24341959     0.84100
O926        O  0.02459194  0.70712804  0.37796267    -0.68000
O927        O  0.44417116  0.74755100  0.28703432    -0.87300
C928        C  0.02202656  0.69705010  0.34680138     0.84900
C929        C  0.09187658  0.76303669  0.34407862     1.06500
H930        H  0.48029701  0.72467007  0.30305177     0.38300
O931        O  0.49453148  0.74734258  0.30476037    -1.10000
O932        O  0.01179351  0.80532032  0.34940181    -0.66600
Ni933      Ni  0.49809453  0.76206996  0.35139630     1.26300
O934        O  0.02662912  0.71485476  0.32112143    -0.66800
O935        O  0.45835005  0.75519590  0.34552866    -0.79100
C936        C  0.50913991  0.76123926  0.42417370     0.84300
O937        O  0.50350409  0.77554996  0.39992387    -0.66300
Ni938      Ni  0.48121941  0.76391471  0.26758729     1.27400
Ni939      Ni  0.03786915  0.75908414  0.31489145     1.26100
H940        H  0.05318165  0.79301750  0.36676604     0.38800
O941        O  0.25044551  0.96598578  0.42006899    -0.81100
O942        O  0.25326063  0.95986958  0.26357708    -0.65800
O943        O  0.26979388  0.49038415  0.35429976    -1.12400
C944        C  0.17214951  0.47699427  0.32814967     1.05800
O945        O  0.24220591  0.49642698  0.24768251    -0.79000
O946        O  0.22529863  0.52712233  0.29029507    -0.66600
Ni947      Ni  0.28361383  0.97645861  0.39379786     1.34900
C948        C  0.24023461  0.54251000  0.31900005     0.84500
O949        O  0.30237491  0.48206764  0.30837120    -0.79500
O950        O  0.31766909  0.98716048  0.36985905    -0.89800
C951        C  0.25000407  0.47738281  0.23858159     0.84100
O952        O  0.26621571  0.93296129  0.37768121    -0.68000
O953        O  0.17377607  0.47252478  0.29623315    -0.87300
C954        C  0.25567343  0.91833995  0.34778608     0.84900
C955        C  0.32170561  0.98821481  0.33779610     1.06500
H956        H  0.20745796  0.94507098  0.31224628     0.38300
O957        O  0.22188731  0.96758730  0.31190418    -1.10000
O958        O  0.24780013  0.52983758  0.34365150    -0.66600
Ni959      Ni  0.23114405  0.48575338  0.35486736     1.26300
O960        O  0.24929975  0.93081656  0.32168441    -0.66800
O961        O  0.19073291  0.98110330  0.35618983    -0.79100
C962        C  0.24323773  0.98601870  0.42769391     0.84300
O963        O  0.24027951  0.50098645  0.40196047    -0.66300
Ni964      Ni  0.20828495  0.48396910  0.27295894     1.27400
Ni965      Ni  0.26153248  0.97440988  0.31102603     1.26100
H966        H  0.28497008  0.51277331  0.35492978     0.38800
O967        O  0.25374964  0.71084907  0.41727861    -0.81100
O968        O  0.26589547  0.71529828  0.26099536    -0.65800
O969        O  0.27554433  0.74305234  0.35660175    -1.12400
C970        C  0.18444697  0.73711592  0.32729139     1.05800
O971        O  0.25351966  0.74997533  0.24292537    -0.79000
O972        O  0.25401333  0.78886048  0.29404017    -0.66600
Ni973      Ni  0.28894028  0.72553094  0.39316642     1.34900
C974        C  0.25418306  0.79874696  0.32433751     0.84500
O975        O  0.31037692  0.73397261  0.31421588    -0.79500
O976        O  0.32502439  0.73987260  0.37233832    -0.89800
C977        C  0.26264455  0.73128878  0.23699616     0.84100
O978        O  0.27337309  0.68354114  0.37269117    -0.68000
O979        O  0.19488293  0.74595414  0.29828117    -0.87300
C980        C  0.26016197  0.66970495  0.34275411     0.84900
C981        C  0.32963574  0.73954898  0.34074844     1.06500
H982        H  0.21662597  0.70141048  0.30242883     0.38300
O983        O  0.23241635  0.72353080  0.30690664    -1.10000
O984        O  0.24898107  0.78055616  0.34972981    -0.66600
Ni985      Ni  0.23582343  0.73561660  0.35507712     1.26300
O986        O  0.25398313  0.68358147  0.31829196    -0.66800
O987        O  0.19559630  0.72687687  0.35086791    -0.79100
C988        C  0.24587755  0.72967737  0.42694833     0.84300
O989        O  0.24062226  0.74556285  0.40444837    -0.66300
Ni990      Ni  0.22488928  0.74724164  0.27291101     1.27400
Ni991      Ni  0.27114991  0.72818289  0.30955171     1.26100
H992        H  0.28982533  0.76571554  0.35841183     0.38800
O993        O  0.05056930  0.52682102  0.08458966    -0.81100
O994        O  0.03228764  0.52702164  0.93076531    -0.65800
O995        O  0.01267867  0.51206812  0.02349740    -1.12400
C996        C  0.01587997  0.92014302  0.01005634     1.05800
O997        O  0.49342023  0.97746953  0.91233813    -0.79000
O998        O  0.46031483  0.93680465  0.95952908    -0.66600
Ni999      Ni  0.03215536  0.54621613  0.05789016     1.34900
C1000       C  0.45363149  0.93102402  0.99033272     0.84500
O1001       O  0.01710610  0.55638893  0.97562963    -0.79500
O1002       O  0.01448138  0.56646602  0.03173419    -0.89800
C1003       C  0.01708636  0.50512168  0.90686705     0.84100
O1004       O  0.06992124  0.57454604  0.04067861    -0.68000
O1005       O  0.00538085  0.91916030  0.97836049    -0.87300
C1006       C  0.08145889  0.57356671  0.01392513     0.84900
C1007       C  0.01243330  0.57078025  0.99920817     1.06500
H1008       H  0.04548945  0.98859659  0.97899935     0.38300
O1009       O  0.02448793  0.98186259  0.98000571    -1.10000
O1010       O  0.47332369  0.94626700  0.01683761    -0.66600
Ni1011     Ni  0.01712649  0.97643494  0.02764845     1.26300
O1012       O  0.06676653  0.55084680  0.99045114    -0.66800
O1013       O  0.02517654  0.94327435  0.03220856    -0.79100
C1014       C  0.02984247  0.99946324  0.09679973     0.84300
O1015       O  0.01220966  0.97506250  0.07641504    -0.66300
Ni1016     Ni  0.49864055  0.95010456  0.94391815     1.27400
Ni1017     Ni  0.02322070  0.52122922  0.97768353     1.26100
H1018       H  0.48769197  0.50583771  0.01905091     0.38800
O1019       O  0.98523861  0.75757665  0.92207955    -0.81100
O1020       O  0.04348658  0.77191102  0.07488694    -0.65800
O1021       O  0.02008290  0.74976632  0.97630769    -1.12400
C1022       C  0.41938269  0.66770207  0.00288061     1.05800
O1023       O  0.02263778  0.72155861  0.08324599    -0.79000
O1024       O  0.48218261  0.66913922  0.02607092    -0.66600
Ni1025     Ni  0.02654655  0.78089876  0.94389623     1.34900
C1026       C  0.98888411  0.66851792  0.00462028     0.84500
O1027       O  0.07491985  0.79480583  0.01832513    -0.79500
O1028       O  0.06824519  0.80640668  0.96302416    -0.89800
C1029       C  0.03630921  0.74990275  0.09586753     0.84100
O1030       O  0.01668749  0.80537473  0.97099914    -0.68000
O1031       O  0.43386114  0.67434978  0.03352823    -0.87300
C1032       C  0.01830430  0.80994396  0.00358130     0.84900
C1033       C  0.08476514  0.81170048  0.99199142     1.06500
H1034       H  0.47395683  0.73868879  0.02506614     0.38300
O1035       O  0.48447698  0.72831748  0.01942279    -1.10000
O1036       O  0.98847338  0.68632671  0.98130444    -0.66600
Ni1037     Ni  0.47293148  0.71545246  0.97093585     1.26300
O1038       O  0.02440438  0.79504721  0.02617261    -0.66800
O1039       O  0.43171476  0.68169754  0.97610068    -0.79100
C1040       C  0.46790625  0.72633610  0.90040390     0.84300
O1041       O  0.46394411  0.70531052  0.92157984    -0.66300
Ni1042     Ni  0.47569849  0.69703500  0.05239495     1.27400
Ni1043     Ni  0.03321116  0.76246975  0.02497030     1.26100
H1044       H  0.03031167  0.73948238  0.96929524     0.38800
O1045       O  0.26178678  0.51935420  0.08916724    -0.81100
O1046       O  0.24617923  0.51350758  0.92376452    -0.65800
O1047       O  0.23436432  0.49866930  0.01905229    -1.12400
C1048       C  0.28750140  0.94480475  0.01475755     1.05800
O1049       O  0.23390074  0.96290827  0.91534783    -0.79000
O1050       O  0.21944449  0.92171078  0.96539622    -0.66600
Ni1051     Ni  0.24869985  0.53518729  0.05012019     1.34900
C1052       C  0.20865983  0.91844273  0.99399576     0.84500
O1053       O  0.21729881  0.52650682  0.96589283    -0.79500
O1054       O  0.23655359  0.55568235  0.01633532    -0.89800
C1055       C  0.24170489  0.49306076  0.90070066     0.84100
O1056       O  0.28867236  0.55661447  0.03699493    -0.68000
O1057       O  0.27917559  0.94114987  0.98200341    -0.87300
C1058       C  0.29628491  0.56230894  0.00649704     0.84900
C1059       C  0.22276952  0.54963106  0.98560811     1.06500
H1060       H  0.28803300  0.00323395  0.98204755     0.38300
O1061       O  0.26663400  0.98773872  0.98202120    -1.10000
O1062       O  0.22205182  0.93875281  0.01966111    -0.66600
Ni1063     Ni  0.25924238  0.97946416  0.02904906     1.26300
O1064       O  0.27776899  0.54742497  0.97933965    -0.66800
O1065       O  0.28226812  0.96021803  0.03592022    -0.79100
C1066       C  0.25802797  0.99311229  0.09882011     0.84300
O1067       O  0.25180259  0.97213418  0.07564872    -0.66300
Ni1068     Ni  0.25685724  0.95336680  0.95023899     1.27400
Ni1069     Ni  0.23999443  0.50660983  0.97102034     1.26100
H1070       H  0.21315420  0.48362084  0.02087711     0.38800
O1071       O  0.30311509  0.75461958  0.08061806    -0.81100
O1072       O  0.26934817  0.79229611  0.93911632    -0.65800
O1073       O  0.26770181  0.76551054  0.03286248    -1.12400
C1074       C  0.24976353  0.67209827  0.97305531     1.05800
O1075       O  0.22743861  0.74644919  0.92658476    -0.79000
O1076       O  0.20364739  0.69022610  0.95827250    -0.66600
Ni1077     Ni  0.29939651  0.79010148  0.06937040     1.34900
C1078       C  0.19735608  0.68712645  0.98932801     0.84500
O1079       O  0.27426967  0.81926635  0.00356013    -0.79500
O1080       O  0.29662994  0.82627827  0.05943851    -0.89800
C1081       C  0.24697011  0.77310659  0.91669754     0.84100
O1082       O  0.33393301  0.80759817  0.04437657    -0.68000
O1083       O  0.24997597  0.68558772  0.94488964    -0.87300
C1084       C  0.33727998  0.81682109  0.01364398     0.84900
C1085       C  0.28710409  0.83537954  0.03279993     1.06500
H1086       H  0.28719329  0.74666174  0.97031680     0.38300
O1087       O  0.26739678  0.74179075  0.97507672    -1.10000
O1088       O  0.21727656  0.70477568  0.01476710    -0.66600
Ni1089     Ni  0.26147599  0.72495165  0.01990285     1.26300
O1090       O  0.31474686  0.80565459  0.98945027    -0.66800
O1091       O  0.25477304  0.68498410  0.00373559    -0.79100
C1092       C  0.28034612  0.73044362  0.09087501     0.84300
O1093       O  0.25849925  0.71208417  0.06767152    -0.66300
Ni1094     Ni  0.23930182  0.71643570  0.93626333     1.27400
Ni1095     Ni  0.27046748  0.78090245  0.98737978     1.26100
H1096       H  0.24914010  0.76216762  0.04023199     0.38800
O1097       O  0.99900529  0.53423178  0.58429740    -0.81100
O1098       O  0.02820775  0.53042739  0.73821593    -0.65800
O1099       O  0.99451442  0.00262334  0.63998486    -1.12400
C1100       C  0.41963106  0.52449401  0.66837726     1.05800
O1101       O  0.47974429  0.99823902  0.74460556    -0.79000
O1102       O  0.42604761  0.97173917  0.70188818    -0.66600
Ni1103     Ni  0.02284705  0.51893843  0.60679493     1.34900
C1104       C  0.41920524  0.95648597  0.67265440     0.84500
O1105       O  0.04428907  0.00586601  0.68377892    -0.79500
O1106       O  0.04796338  0.50429519  0.62882537    -0.89800
C1107       C  0.00675475  0.01244910  0.75681553     0.84100
O1108       O  0.05282511  0.56063792  0.62544962    -0.68000
O1109       O  0.43101930  0.02856676  0.69834484    -0.87300
C1110       C  0.06231420  0.57442575  0.65560414     0.84900
C1111       C  0.05829831  0.50413041  0.66042523     1.06500
H1112       H  0.49061796  0.54719071  0.68781286     0.38300
O1113       O  0.48108920  0.52439573  0.68599389    -1.10000
O1114       O  0.43434111  0.96882931  0.64698181    -0.66600
Ni1115     Ni  0.46299013  0.01306183  0.63752787     1.26300
O1116       O  0.04681935  0.56265218  0.68114626    -0.66800
O1117       O  0.43007254  0.51939086  0.64172319    -0.79100
C1118       C  0.47201725  0.51449763  0.56901243     0.84300
O1119       O  0.45008388  0.00080297  0.58781820    -0.66300
Ni1120     Ni  0.45627867  0.01385564  0.72034221     1.27400
Ni1121     Ni  0.01534222  0.51894054  0.68905849     1.26100
H1122       H  0.98480760  0.97982179  0.63905551     0.38800
O1123       O  0.99354617  0.72857698  0.75302929    -0.81100
O1124       O  0.02038057  0.77216547  0.60363897    -0.65800
O1125       O  0.00251417  0.76816945  0.69812926    -1.12400
C1126       C  0.40688135  0.68495464  0.63778852     1.05800
O1127       O  0.48064757  0.77259319  0.58062281    -0.79000
O1128       O  0.42963190  0.75333477  0.61424932    -0.66600
Ni1129     Ni  0.02714627  0.76545788  0.73631908     1.34900
C1130       C  0.42653273  0.75892804  0.64513036     0.84500
O1131       O  0.05219819  0.80787926  0.66468747    -0.79500
O1132       O  0.06194070  0.80184968  0.72200043    -0.89800
C1133       C  0.50476438  0.77436828  0.57368543     0.84100
O1134       O  0.03948749  0.73998090  0.71536729    -0.68000
O1135       O  0.41679316  0.69436571  0.60863053    -0.87300
C1136       C  0.04726186  0.74120730  0.68517140     0.84900
C1137       C  0.06966592  0.81553431  0.69362113     1.06500
H1138       H  0.47754730  0.71695076  0.63268180     0.38300
O1139       O  0.47447597  0.73435186  0.63585630    -1.10000
O1140       O  0.44195659  0.75655912  0.67178572    -0.66600
Ni1141     Ni  0.46176433  0.73238570  0.68054714     1.26300
O1142       O  0.03455824  0.74743735  0.65871905    -0.66800
O1143       O  0.42309962  0.69514543  0.66741210    -0.79100
C1144       C  0.46956495  0.72866195  0.75267836     0.84300
O1145       O  0.45250362  0.73059991  0.72782824    -0.66300
Ni1146     Ni  0.44912183  0.73339582  0.59584131     1.27400
Ni1147     Ni  0.01330759  0.77043777  0.65220961     1.26100
H1148       H  0.49721706  0.78765687  0.69335674     0.38800
O1149       O  0.27485012  0.53923654  0.74655480    -0.81100
O1150       O  0.25625080  0.51724227  0.58941329    -0.65800
O1151       O  0.24975638  0.54205945  0.67897667    -1.12400
C1152       C  0.17615697  0.92814858  0.68429992     1.05800
O1153       O  0.20235873  0.98685295  0.57992800    -0.79000
O1154       O  0.16454679  0.97639251  0.62808737    -0.66600
Ni1155     Ni  0.28512909  0.56868345  0.71025136     1.34900
C1156       C  0.16228238  0.98781836  0.65601262     0.84500
O1157       O  0.28064179  0.57335291  0.62379507    -0.79500
O1158       O  0.29592510  0.59943913  0.67657885    -0.89800
C1159       C  0.23239935  0.50245811  0.56784733     0.84100
O1160       O  0.31345549  0.55781705  0.69624265    -0.68000
O1161       O  0.17172720  0.92887142  0.65128351    -0.87300
C1162       C  0.31021873  0.03697967  0.67328294     0.84900
C1163       C  0.29390933  0.59875716  0.64330585     1.06500
H1164       H  0.23458664  0.97234132  0.65099523     0.38300
O1165       O  0.22388066  0.98348282  0.64854905    -1.10000
O1166       O  0.18282506  0.99670249  0.68238532    -0.66600
Ni1167     Ni  0.21968975  0.99439009  0.69387299     1.26300
O1168       O  0.28703602  0.02257260  0.64994152    -0.66800
O1169       O  0.19500909  0.95186546  0.70479184    -0.79100
C1170       C  0.24431023  0.01777021  0.76038688     0.84300
O1171       O  0.21995743  0.00734872  0.73989988    -0.66300
Ni1172     Ni  0.18801358  0.95880545  0.61696973     1.27400
Ni1173     Ni  0.25476111  0.53073779  0.63444956     1.26100
H1174       H  0.23817827  0.55222936  0.67562657     0.38800
O1175       O  0.21532415  0.73218848  0.58426559    -0.81100
O1176       O  0.22543357  0.75944154  0.74551041    -0.65800
O1177       O  0.22792709  0.76842965  0.64663866    -1.12400
C1178       C  0.31901456  0.76392657  0.67073731     1.05800
O1179       O  0.27420815  0.79631700  0.75349420    -0.79000
O1180       O  0.31436867  0.82120573  0.70596836    -0.66600
Ni1181     Ni  0.19349903  0.74314700  0.61296839     1.34900
C1182       C  0.31190826  0.82988820  0.67550618     0.84500
O1183       O  0.18761570  0.76473382  0.69386357    -0.79500
O1184       O  0.16761496  0.75095553  0.63765183    -0.89800
C1185       C  0.24930010  0.77915918  0.76600852     0.84100
O1186       O  0.17813374  0.70380283  0.63413909    -0.68000
O1187       O  0.31763732  0.76871882  0.70286915    -0.87300
C1188       C  0.17721998  0.69606209  0.66557166     0.84900
C1189       C  0.16579929  0.75700043  0.66904731     1.06500
H1190       H  0.25246530  0.73586834  0.69601427     0.38300
O1191       O  0.25914563  0.75792006  0.69349803    -1.10000
O1192       O  0.29116845  0.81136031  0.65117687    -0.66600
Ni1193     Ni  0.26345054  0.76530260  0.64536834     1.26300
O1194       O  0.19533711  0.71562878  0.69102129    -0.66800
O1195       O  0.29908774  0.76158261  0.64615552    -0.79100
C1196       C  0.24118448  0.75052117  0.57418323     0.84300
O1197       O  0.26370687  0.77014382  0.59587484    -0.66300
Ni1198     Ni  0.29433064  0.78141833  0.72694036     1.27400
Ni1199     Ni  0.22393064  0.76183610  0.69521318     1.26100
H1200       H  0.23391560  0.79020831  0.64336077     0.38800
C1201       C  0.32653487  0.65478927  0.65253739    -0.06000
C1202       C  0.31114936  0.62930627  0.62769205    -0.00100
C1203       C  0.32611191  0.62963693  0.59954906    -0.08600
C1204       C  0.35777665  0.64644471  0.60462678    -0.06000
C1205       C  0.37391953  0.66417243  0.63630450    -0.00100
C1206       C  0.35770875  0.66781217  0.66150043    -0.08500
C1207       C  0.37179669  0.68254154  0.69830912     0.61800
H1208       H  0.31342432  0.65703029  0.67097415     0.12500
H1209       H  0.36975743  0.64553970  0.58386811     0.12500
C1210       C  0.30924132  0.61091019  0.56545181     0.62100
F1211       F  0.35021988  0.67878147  0.71904811    -0.23100
F1212       F  0.39219379  0.71453166  0.69757668    -0.20400
F1213       F  0.38629066  0.66805706  0.71403847    -0.20100
F1214       F  0.27844090  0.59944653  0.56358417    -0.20200
F1215       F  0.31348260  0.58578500  0.56202255    -0.20500
F1216       F  0.32031164  0.63029084  0.53818054    -0.23200
C1217       C  0.11007091  0.86571270  0.72216268    -0.06000
C1218       C  0.10075059  0.84209015  0.69556868    -0.00100
C1219       C  0.12166356  0.84437475  0.67331751    -0.08600
C1220       C  0.15035114  0.87171200  0.67696914    -0.06000
C1221       C  0.15692519  0.89775189  0.69821453    -0.00100
C1222       C  0.13797689  0.89430414  0.72344569    -0.08500
C1223       C  0.14580889  0.92119106  0.74940782     0.61800
H1224       H  0.09422231  0.86270441  0.74000730     0.12500
H1225       H  0.16615150  0.87466300  0.65898246     0.12500
C1226       C  0.11563718  0.82082977  0.64395278     0.62100
F1227       F  0.12522861  0.91135148  0.77344220    -0.23100
F1228       F  0.14553404  0.94552979  0.73209992    -0.20400
F1229       F  0.17434705  0.93243471  0.76753504    -0.20100
F1230       F  0.08725953  0.79386541  0.64109467    -0.20200
F1231       F  0.13685720  0.81195147  0.64894323    -0.20500
F1232       F  0.11887244  0.83540477  0.61280044    -0.23200
C1233       C  0.37471362  0.78319166  0.68233449    -0.06000
C1234       C  0.34636803  0.76298436  0.66208939    -0.00100
C1235       C  0.34553487  0.74354111  0.63447175    -0.08600
C1236       C  0.37254727  0.74436901  0.62917939    -0.06000
C1237       C  0.40071718  0.76399495  0.65001327    -0.00100
C1238       C  0.40180002  0.78439366  0.67657676    -0.08500
C1239       C  0.43158902  0.80825651  0.69800944     0.61800
H1240       H  0.37561270  0.79856766  0.70282973     0.12500
H1241       H  0.37158872  0.72864677  0.60906085     0.12500
C1242       C  0.31616469  0.72113434  0.61119919     0.62100
F1243       F  0.42851522  0.82857871  0.71919375    -0.23100
F1244       F  0.45296025  0.82631432  0.67614900    -0.20400
F1245       F  0.44201741  0.79267786  0.71905291    -0.20100
F1246       F  0.30703817  0.73841134  0.59091118    -0.20200
F1247       F  0.29369386  0.70191170  0.63139499    -0.20500
F1248       F  0.31954223  0.70168193  0.58898552    -0.23200
C1249       C  0.10115010  0.75971130  0.70757140    -0.06000
C1250       C  0.07578238  0.74075579  0.68236888    -0.00100
C1251       C  0.08003249  0.72619139  0.65403810    -0.08600
C1252       C  0.10946221  0.73192321  0.65143274    -0.06000
C1253       C  0.13536574  0.75218042  0.67573277    -0.00100
C1254       C  0.13074241  0.76587838  0.70480228    -0.08500
C1255       C  0.15689376  0.78794243  0.73219395     0.61800
H1256       H  0.09786352  0.77102997  0.72906238     0.12500
H1257       H  0.11236664  0.72053074  0.62970429     0.12500
C1258       C  0.05352978  0.70422172  0.62695088     0.62100
F1259       F  0.14814034  0.80170449  0.75562640    -0.23100
F1260       F  0.18011886  0.81214664  0.71634835    -0.20400
F1261       F  0.16756985  0.77112721  0.75080432    -0.20100
F1262       F  0.04440202  0.72147105  0.60669474    -0.20200
F1263       F  0.02941822  0.68189110  0.64330633    -0.20500
F1264       F  0.06117955  0.68821439  0.60505958    -0.23200
C1265       C  0.36090645  0.86659260  0.65309204    -0.06000
C1266       C  0.33592726  0.86281733  0.66840998    -0.00100
C1267       C  0.33812238  0.89008986  0.68331271    -0.08600
C1268       C  0.36548182  0.91978938  0.68357894    -0.06000
C1269       C  0.39082717  0.92372537  0.66887805    -0.00100
C1270       C  0.38837221  0.89650671  0.65316536    -0.08500
C1271       C  0.41526091  0.89857487  0.63880845     0.61800
H1272       H  0.35931904  0.84543696  0.64270888     0.12500
H1273       H  0.36705803  0.94039275  0.69565618     0.12500
C1274       C  0.31259968  0.88897681  0.70014154     0.62100
F1275       F  0.40914839  0.86905213  0.62765219    -0.23100
F1276       F  0.44008049  0.91155321  0.66439292    -0.20400
F1277       F  0.42245752  0.91741598  0.61075598    -0.20100
F1278       F  0.32049523  0.89368527  0.73586970    -0.20200
F1279       F  0.28520983  0.86049922  0.69266463    -0.20500
F1280       F  0.30825330  0.91284865  0.68823577    -0.23200
C1281       C  0.14460876  0.64004730  0.64388646    -0.06000
C1282       C  0.15212524  0.66270285  0.67078406    -0.00100
C1283       C  0.13130691  0.65460102  0.69564748    -0.08600
C1284       C  0.10240472  0.62576268  0.69004019    -0.06000
C1285       C  0.09362460  0.60459691  0.66069676    -0.00100
C1286       C  0.11621384  0.61139327  0.63815125    -0.08500
C1287       C  0.11127268  0.58913023  0.60760997     0.61800
H1288       H  0.16098151  0.64607764  0.62571694     0.12500
H1289       H  0.08609694  0.61994227  0.70821881     0.12500
C1290       C  0.13914831  0.67634996  0.72760405     0.62100
F1291       F  0.13759349  0.59916619  0.59261170    -0.23100
F1292       F  0.08979871  0.58760435  0.58184699    -0.20400
F1293       F  0.10200299  0.55927535  0.61886297    -0.20100
F1294       F  0.14266269  0.70472554  0.71773046    -0.20200
F1295       F  0.16590241  0.68200367  0.74636867    -0.20500
F1296       F  0.11665991  0.66322493  0.74938119    -0.23200
C1297       C  0.39038389  0.54477463  0.69510046    -0.06000
C1298       C  0.39264192  0.03233860  0.66302207    -0.00100
C1299       C  0.36480322  0.01321717  0.64076120    -0.08600
C1300       C  0.33876871  0.01516923  0.64507958    -0.06000
C1301       C  0.33930938  0.03635998  0.67009532    -0.00100
C1302       C  0.36470127  0.54697998  0.69908719    -0.08500
C1303       C  0.36337684  0.55925454  0.73447097     0.61800
H1304       H  0.40871108  0.55388234  0.71636748     0.12500
H1305       H  0.31750122  0.99975637  0.62877968     0.12500
C1306       C  0.36237977  0.99041327  0.61280839     0.62100
F1307       F  0.38666244  0.56327703  0.75926228    -0.23100
F1308       F  0.33627135  0.53771134  0.74663513    -0.20400
F1309       F  0.36393703  0.10279546  0.69620203    -0.20100
F1310       F  0.36982973  0.47510997  0.61504337    -0.20200
F1311       F  0.38346801  0.00708946  0.59012812    -0.20500
F1312       F  0.33384231  0.97430241  0.59355861    -0.23200
C1313       C  0.08140479  0.97524354  0.63640924    -0.06000
C1314       C  0.08125369  0.99514684  0.66203670    -0.00100
C1315       C  0.11218092  0.51731026  0.68826814    -0.08600
C1316       C  0.13831509  0.51553906  0.68441054    -0.06000
C1317       C  0.13392833  0.98982445  0.65761123    -0.00100
C1318       C  0.10644877  0.97163564  0.63393426    -0.08500
C1319       C  0.10246445  0.94755332  0.60617475     0.61800
H1320       H  0.06127520  0.96244782  0.61754261     0.12500
H1321       H  0.15893311  0.52944216  0.70231675     0.12500
C1322       C  0.11391446  0.53903851  0.71706436     0.62100
F1323       F  0.07298460  0.93022923  0.58934771    -0.23100
F1324       F  0.10896889  0.92614139  0.62142764    -0.20400
F1325       F  0.12135371  0.96290335  0.58102212    -0.20100
F1326       F  0.09277831  0.52130580  0.73929909    -0.20200
F1327       F  0.10794078  0.56112719  0.70294184    -0.20500
F1328       F  0.14237884  0.55532766  0.73649577    -0.23200
C1329       C  0.27218203  0.80157052  0.86528566    -0.06000
C1330       C  0.24533404  0.77935826  0.87852085    -0.00100
C1331       C  0.21847937  0.76143614  0.85434338    -0.08600
C1332       C  0.22070199  0.76266437  0.81817256    -0.06000
C1333       C  0.24829624  0.78261516  0.80476536    -0.00100
C1334       C  0.27409704  0.80432177  0.82905487    -0.08500
C1335       C  0.30382085  0.83053904  0.81764610     0.61800
H1336       H  0.29229173  0.81607477  0.88371092     0.12500
H1337       H  0.20064139  0.74716377  0.80009332     0.12500
C1338       C  0.18730727  0.74059804  0.86605703     0.62100
F1339       F  0.32380388  0.85090966  0.84542675    -0.23100
F1340       F  0.29805659  0.84853726  0.79429704    -0.20400
F1341       F  0.31815294  0.81763196  0.80243145    -0.20100
F1342       F  0.18404128  0.75559579  0.89383003    -0.20200
F1343       F  0.18362985  0.71202067  0.87570772    -0.20500
F1344       F  0.16431762  0.73434361  0.83959523    -0.23200
C1345       C  0.31139722  0.88799314  0.01082236    -0.06000
C1346       C  0.29361570  0.86761101  0.03508272    -0.00100
C1347       C  0.28324609  0.87864177  0.06061303    -0.08600
C1348       C  0.28691777  0.90852643  0.05719588    -0.06000
C1349       C  0.30028999  0.92655909  0.02913033    -0.00100
C1350       C  0.31597947  0.91819347  0.00848701    -0.08500
C1351       C  0.33627279  0.93991931  0.98282156     0.61800
H1352       H  0.32125493  0.88003917  0.99316051     0.12500
H1353       H  0.27603438  0.91609027  0.07370199     0.12500
C1354       C  0.26651716  0.85823400  0.08944262     0.62100
F1355       F  0.36394350  0.94192052  0.98820997    -0.23100
F1356       F  0.34185100  0.97034895  0.98685381    -0.20400
F1357       F  0.32282998  0.92776669  0.94916925    -0.20100
F1358       F  0.28581877  0.85244983  0.11120013    -0.20200
F1359       F  0.24160342  0.82971105  0.07519972    -0.20500
F1360       F  0.25628734  0.87289232  0.10954709    -0.23200
C1361       C  0.23566662  0.59147633  0.94650367    -0.06000
C1362       C  0.21739121  0.57373255  0.97191219    -0.00100
C1363       C  0.20600097  0.58705609  0.99310507    -0.08600
C1364       C  0.21726054  0.61935488  0.99223582    -0.06000
C1365       C  0.23882602  0.63828403  0.97020715    -0.00100
C1366       C  0.24687949  0.62405832  0.94527616    -0.08500
C1367       C  0.26859135  0.64322707  0.91929125     0.61800
H1368       H  0.24393546  0.58050859  0.93042233     0.12500
H1369       H  0.20951458  0.63000398  0.00959388     0.12500
C1370       C  0.18379964  0.56854283  0.01877083     0.62100
F1371       F  0.27656351  0.62525047  0.90112504    -0.23100
F1372       F  0.29493527  0.66873735  0.93655268    -0.20400
F1373       F  0.25498313  0.65416176  0.89525605    -0.20100
F1374       F  0.19801649  0.57997422  0.05238001    -0.20200
F1375       F  0.17282660  0.53639520  0.01551934    -0.20500
F1376       F  0.15925376  0.57243689  0.01297589    -0.23200
C1377       C  0.22647462  0.51344692  0.84954867    -0.06000
C1378       C  0.24078033  0.99501511  0.86715140    -0.00100
C1379       C  0.24945007  0.98033109  0.84338895    -0.08600
C1380       C  0.25062200  0.98887840  0.80871305    -0.06000
C1381       C  0.24247464  0.01045485  0.79708716    -0.00100
C1382       C  0.22753223  0.52190378  0.81483033    -0.08500
C1383       C  0.20773243  0.53430427  0.79961785     0.61800
H1384       H  0.21127628  0.51518508  0.86514596     0.12500
H1385       H  0.25756941  0.97844816  0.79008757     0.12500
C1386       C  0.25803080  0.95627150  0.85439790     0.62100
F1387       F  0.19355535  0.53945489  0.82482105    -0.23100
F1388       F  0.18531037  0.51256618  0.77450273    -0.20400
F1389       F  0.22536384  0.56280709  0.78489023    -0.20100
F1390       F  0.23284102  0.92913615  0.86379373    -0.20200
F1391       F  0.28093454  0.96900125  0.88225160    -0.20500
F1392       F  0.26837347  0.94746737  0.82773958    -0.23200
C1393       C  0.33311273  0.61085347  0.97841097    -0.06000
C1394       C  0.32784804  0.58760584  0.00248211    -0.00100
C1395       C  0.35283917  0.58917763  0.02288766    -0.08600
C1396       C  0.38165751  0.61616270  0.02238155    -0.06000
C1397       C  0.38733288  0.64027042  0.99951198    -0.00100
C1398       C  0.36280283  0.63695814  0.97585127    -0.08500
C1399       C  0.36761826  0.66096107  0.94890430     0.61800
H1400       H  0.31372481  0.60864712  0.96205789     0.12500
H1401       H  0.40017166  0.61856149  0.04054670     0.12500
C1402       C  0.34942325  0.56224549  0.04471973     0.62100
F1403       F  0.34045149  0.65410079  0.93010419    -0.23100
F1404       F  0.38583422  0.66075371  0.92557458    -0.20400
F1405       F  0.38136462  0.69096621  0.96512382    -0.20100
F1406       F  0.33221788  0.53370181  0.02507789    -0.20200
F1407       F  0.33542169  0.56128993  0.07325892    -0.20500
F1408       F  0.37726027  0.56592945  0.05659088    -0.23200
C1409       C  0.15421859  0.89176477  0.97582028    -0.06000
C1410       C  0.17768230  0.89112093  0.99606358    -0.00100
C1411       C  0.17102898  0.86497487  0.01647248    -0.08600
C1412       C  0.14040135  0.83959462  0.01526097    -0.06000
C1413       C  0.11663610  0.83978269  0.99410124    -0.00100
C1414       C  0.12380077  0.86702386  0.97456617    -0.08500
C1415       C  0.09999041  0.87102607  0.95243476     0.61800
H1416       H  0.16016652  0.91217434  0.96055730     0.12500
H1417       H  0.13491922  0.81914333  0.03021925     0.12500
C1418       C  0.19632746  0.86371480  0.03846299     0.62100
F1419       F  0.11188540  0.90170299  0.94207952    -0.23100
F1420       F  0.07656793  0.86450660  0.97127960    -0.20400
F1421       F  0.08873497  0.85105674  0.92256774    -0.20100
F1422       F  0.21061639  0.88847351  0.06376548    -0.20200
F1423       F  0.21736475  0.86633995  0.01756552    -0.20500
F1424       F  0.18543750  0.83554101  0.05486285    -0.23200
C1425       C  0.44943977  0.73572431  0.84276651    -0.06000
C1426       C  0.46046197  0.71901056  0.86202778    -0.00100
C1427       C  0.96756543  0.70023296  0.85180310    -0.08600
C1428       C  0.96682801  0.70136798  0.81519913    -0.06000
C1429       C  0.46094860  0.72169253  0.78870939    -0.00100
C1430       C  0.44991779  0.73783121  0.80651747    -0.08500
C1431       C  0.44166552  0.75983254  0.78829334     0.61800
H1432       H  0.44248238  0.74915380  0.85691254     0.12500
H1433       H  0.97047414  0.68535213  0.80055655     0.12500
C1434       C  0.97260154  0.67582396  0.86989308     0.62100
F1435       F  0.43238660  0.77392062  0.81062435    -0.23100
F1436       F  0.41804482  0.74297019  0.76190649    -0.20400
F1437       F  0.46691438  0.78365468  0.77486694    -0.20100
F1438       F  0.94855090  0.65698528  0.88830667    -0.20200
F1439       F  0.99945197  0.69092792  0.89243301    -0.20500
F1440       F  0.97445019  0.65610402  0.84639364    -0.23200
C1441       C  0.42232684  0.88382588  0.02344346    -0.06000
C1442       C  0.42303292  0.90273835  0.99586586    -0.00100
C1443       C  0.39577341  0.89195922  0.97284530    -0.08600
C1444       C  0.36900720  0.86314930  0.97871483    -0.06000
C1445       C  0.36812000  0.84427552  0.00660979    -0.00100
C1446       C  0.39576800  0.85487459  0.02918320    -0.08500
C1447       C  0.39791950  0.83604464  0.05932957     0.61800
H1448       H  0.44329142  0.89174429  0.04046854     0.12500
H1449       H  0.34816710  0.85547448  0.96157991     0.12500
C1450       C  0.39453422  0.91093302  0.94246666     0.62100
F1451       F  0.42781446  0.84711054  0.07270740    -0.23100
F1452       F  0.38463222  0.80451407  0.04822579    -0.20400
F1453       F  0.38350400  0.83849532  0.08603937    -0.20100
F1454       F  0.40966916  0.90846918  0.91662031    -0.20200
F1455       F  0.40799549  0.94250355  0.95349909    -0.20500
F1456       F  0.36490725  0.90008605  0.92814473    -0.23200
C1457       C  0.11545719  0.61412989  0.97559183    -0.06000
C1458       C  0.11212306  0.60167244  0.00857882    -0.00100
C1459       C  0.13640222  0.61864945  0.03596302    -0.08600
C1460       C  0.16322805  0.64689158  0.02894346    -0.06000
C1461       C  0.16644429  0.65968982  0.99592457    -0.00100
C1462       C  0.14130718  0.64333073  0.96906557    -0.08500
C1463       C  0.14071612  0.65677530  0.93376663     0.61800
H1464       H  0.09681341  0.60126969  0.95494051     0.12500
H1465       H  0.18214183  0.65909020  0.04941843     0.12500
C1466       C  0.13439860  0.60672618  0.07239081     0.62100
F1467       F  0.11158146  0.64189281  0.91599504    -0.23100
F1468       F  0.15870210  0.65259903  0.91333378    -0.20400
F1469       F  0.15104039  0.68871882  0.93812031    -0.20100
F1470       F  0.12422281  0.57472703  0.07070271    -0.20200
F1471       F  0.11456797  0.61151447  0.08854171    -0.20500
F1472       F  0.16233607  0.62245232  0.09286770    -0.23200
C1473       C  0.48009856  0.86121368  0.99996296    -0.06000
C1474       C  0.01591530  0.89193205  0.02059696    -0.00100
C1475       C  0.04321203  0.89269596  0.03051892    -0.08600
C1476       C  0.04234574  0.86401014  0.02862971    -0.06000
C1477       C  0.01542300  0.83578642  0.01578888    -0.00100
C1478       C  0.47752357  0.83174999  0.99710089    -0.08500
C1479       C  0.44806514  0.80287114  0.98041284     0.61800
H1480       H  0.46135596  0.86357711  0.98886966     0.12500
H1481       H  0.06314590  0.86384922  0.03410911     0.12500
C1482       C  0.07318922  0.92373232  0.04026977     0.62100
F1483       F  0.42439870  0.80831918  0.97678476    -0.23100
F1484       F  0.44008615  0.77742171  0.00101775    -0.20400
F1485       F  0.45153196  0.79507128  0.94771764    -0.20100
F1486       F  0.07139973  0.93842875  0.06941045    -0.20200
F1487       F  0.07943669  0.94353701  0.01299651    -0.20500
F1488       F  0.09718099  0.91907105  0.04778614    -0.23200
C1489       C  0.47598843  0.58774654  0.97798294    -0.06000
C1490       C  0.00418077  0.59399351  0.98933465    -0.00100
C1491       C  0.02630556  0.62521416  0.98201817    -0.08600
C1492       C  0.01960484  0.64903065  0.98445671    -0.06000
C1493       C  0.99188935  0.64211298  0.99448521    -0.00100
C1494       C  0.46828676  0.61070802  0.98038156    -0.08500
C1495       C  0.43563020  0.60043931  0.98275657     0.61800
H1496       H  0.45875752  0.56283273  0.97871357     0.12500
H1497       H  0.03675834  0.67354039  0.98131527     0.12500
C1498       C  0.05755892  0.63371917  0.97465326     0.62100
F1499       F  0.41579943  0.56856069  0.97293152    -0.23100
F1500       F  0.42728087  0.61766297  0.96122495    -0.20400
F1501       F  0.43300423  0.60555547  0.01681983    -0.20100
F1502       F  0.05472393  0.61432794  0.94707989    -0.20200
F1503       F  0.07260820  0.62967616  0.00397162    -0.20500
F1504       F  0.07494160  0.66491115  0.96601617    -0.23200
C1505       C  0.01186404  0.53323634  0.85589343    -0.06000
C1506       C  0.01625431  0.00367167  0.86648010    -0.00100
C1507       C  0.51076571  0.98192750  0.84176231    -0.08600
C1508       C  0.51033948  0.98650013  0.80587672    -0.06000
C1509       C  0.01613705  0.01292318  0.79431568    -0.00100
C1510       C  0.01019495  0.53740282  0.81984090    -0.08500
C1511       C  0.99971717  0.55901262  0.80519864     0.61800
H1512       H  0.00489557  0.54474679  0.87310251     0.12500
H1513       H  0.50249103  0.96657941  0.78735886     0.12500
C1514       C  0.50211383  0.94922382  0.85359771     0.62100
F1515       F  0.99781637  0.57664534  0.83132875    -0.23100
F1516       F  0.97132235  0.54111983  0.78603336    -0.20400
F1517       F  0.02012444  0.57989116  0.78386290    -0.20100
F1518       F  0.47296624  0.93371500  0.86279118    -0.20200
F1519       F  0.52237238  0.95189401  0.88172800    -0.20500
F1520       F  0.50270587  0.93064515  0.82744116    -0.23200
C1521       C  0.22993014  0.71527533  0.52199704    -0.06000
C1522       C  0.24463700  0.74645285  0.53693474    -0.00100
C1523       C  0.25919910  0.77210723  0.51522169    -0.08600
C1524       C  0.25877078  0.76546024  0.47952586    -0.06000
C1525       C  0.24427474  0.73423911  0.46473983    -0.00100
C1526       C  0.22933661  0.70863095  0.48636098    -0.08500
C1527       C  0.21154673  0.67438578  0.47172327     0.61800
H1528       H  0.21856955  0.69588537  0.53867120     0.12500
H1529       H  0.26993818  0.78478236  0.46271583     0.12500
C1530       C  0.27378153  0.80628334  0.52908015     0.62100
F1531       F  0.19540014  0.65360046  0.49612896    -0.23100
F1532       F  0.23117037  0.66604187  0.46132850    -0.20400
F1533       F  0.19094583  0.67074068  0.44350171    -0.20100
F1534       F  0.29753216  0.81393338  0.55493424    -0.20200
F1535       F  0.25231762  0.81023327  0.54251574    -0.20500
F1536       F  0.28532116  0.82736765  0.50324030    -0.23200
C1537       C  0.25745807  0.70085155  0.18188504    -0.06000
C1538       C  0.27091602  0.73005071  0.20140997    -0.00100
C1539       C  0.29051327  0.75827579  0.18561752    -0.08600
C1540       C  0.29335853  0.75676857  0.15004346    -0.06000
C1541       C  0.27797905  0.72801479  0.12940149    -0.00100
C1542       C  0.26100051  0.69929474  0.14612091    -0.08500
C1543       C  0.24765748  0.66729257  0.12680744     0.61800
H1544       H  0.24328106  0.67930848  0.19450738     0.12500
H1545       H  0.30694505  0.77870958  0.13777014     0.12500
C1546       C  0.30839384  0.79023361  0.20613053     0.62100
F1547       F  0.23575126  0.64270216  0.14891379    -0.23100
F1548       F  0.27014252  0.66648035  0.11165481    -0.20400
F1549       F  0.22460492  0.66217064  0.10120645    -0.20100
F1550       F  0.32136223  0.78749845  0.23813500    -0.20200
F1551       F  0.28931004  0.80103718  0.21113840    -0.20500
F1552       F  0.33167886  0.81271534  0.18881809    -0.23200
C1553       C  0.22608151  0.96279430  0.48304400    -0.06000
C1554       C  0.23850691  0.98988752  0.46371228    -0.00100
C1555       C  0.25363504  0.52197760  0.47738113    -0.08600
C1556       C  0.24962559  0.52461986  0.51219219    -0.06000
C1557       C  0.23073855  0.99417834  0.53359478    -0.00100
C1558       C  0.22167458  0.96436027  0.51785196    -0.08500
C1559       C  0.20795094  0.93454365  0.53798140     0.61800
H1560       H  0.21960922  0.94023283  0.47052471     0.12500
H1561       H  0.25783561  0.54763298  0.52475860     0.12500
C1562       C  0.27120607  0.55192964  0.45816321     0.62100
F1563       F  0.20184082  0.90823759  0.51804210    -0.23100
F1564       F  0.18092323  0.92849938  0.54838734    -0.20400
F1565       F  0.22793310  0.93857384  0.56707454    -0.20100
F1566       F  0.25212255  0.55338832  0.43138078    -0.20200
F1567       F  0.29482223  0.55199720  0.44477766    -0.20500
F1568       F  0.28362152  0.57908650  0.47989725    -0.23200
C1569       C  0.25267501  0.83900034  0.36277939    -0.06000
C1570       C  0.25716371  0.83096711  0.32991228    -0.00100
C1571       C  0.26044051  0.85200793  0.30284790    -0.08600
C1572       C  0.25859850  0.87910777  0.30976837    -0.06000
C1573       C  0.25357647  0.88669435  0.34244133    -0.00100
C1574       C  0.25048615  0.86589312  0.36950428    -0.08500
C1575       C  0.24404664  0.87122388  0.40541244     0.61800
H1576       H  0.25058710  0.82369418  0.38364643     0.12500
H1577       H  0.26161845  0.89517661  0.28939239     0.12500
C1578       C  0.26597268  0.84647802  0.26647276     0.62100
F1579       F  0.23586512  0.84523476  0.42523578    -0.23100
F1580       F  0.22029038  0.87649282  0.40220271    -0.20400
F1581       F  0.26971782  0.89702563  0.42325708    -0.20100
F1582       F  0.24061687  0.81934885  0.25014274    -0.20200
F1583       F  0.29108409  0.84348432  0.26857680    -0.20500
F1584       F  0.27156007  0.87134676  0.24570032    -0.23200
C1585       C  0.27752272  0.63122857  0.34704711    -0.06000
C1586       C  0.25402651  0.63677897  0.33580052    -0.00100
C1587       C  0.22657133  0.61145023  0.31770814    -0.08600
C1588       C  0.22333026  0.58141520  0.31279232    -0.06000
C1589       C  0.24671769  0.57576536  0.32443521    -0.00100
C1590       C  0.27462982  0.60149096  0.34112904    -0.08500
C1591       C  0.30177987  0.59810022  0.35122352     0.61800
H1592       H  0.29870759  0.65082583  0.36008518     0.12500
H1593       H  0.20211445  0.56179448  0.29986130     0.12500
C1594       C  0.20056910  0.61584413  0.30410603     0.62100
F1595       F  0.32808171  0.62712571  0.36116640    -0.23100
F1596       F  0.30670317  0.58493294  0.32314450    -0.20400
F1597       F  0.29648276  0.57882123  0.37878952    -0.20100
F1598       F  0.20901786  0.63636919  0.27747563    -0.20200
F1599       F  0.19323940  0.62817136  0.33069567    -0.20500
F1600       F  0.17471751  0.58746700  0.29107328    -0.23200
C1601       C  0.23276724  0.95836787  0.14489696    -0.06000
C1602       C  0.26158021  0.48589548  0.13237413    -0.00100
C1603       C  0.28513324  0.50824616  0.15758032    -0.08600
C1604       C  0.28136016  0.50375365  0.19274153    -0.06000
C1605       C  0.25594814  0.47682733  0.20288663    -0.00100
C1606       C  0.22930194  0.95262935  0.18005842    -0.08500
C1607       C  0.19992792  0.92508996  0.19033864     0.61800
H1608       H  0.21429432  0.94322889  0.12483273     0.12500
H1609       H  0.29764412  0.52182171  0.21253136     0.12500
C1610       C  0.31447576  0.53591311  0.14759305     0.62100
F1611       F  0.18081927  0.90540942  0.16171208    -0.23100
F1612       F  0.18478022  0.93652356  0.20650666    -0.20400
F1613       F  0.20635980  0.90719313  0.21310692    -0.20100
F1614       F  0.30937216  0.55814674  0.13212931    -0.20200
F1615       F  0.32601171  0.52475796  0.12481071    -0.20500
F1616       F  0.33626162  0.55085195  0.17631538    -0.23200
C1617       C  0.03429660  0.78146058  0.49264399    -0.06000
C1618       C  0.50986415  0.76832451  0.46234941    -0.00100
C1619       C  0.49686936  0.78461492  0.47561605    -0.08600
C1620       C  0.49716828  0.78738369  0.51216462    -0.06000
C1621       C  0.51025387  0.77499850  0.53613493    -0.00100
C1622       C  0.03397184  0.78493095  0.52879978    -0.08500
C1623       C  0.06373985  0.80020299  0.55275706     0.61800
H1624       H  0.05542866  0.78812260  0.48279799     0.12500
H1625       H  0.48647917  0.79885809  0.52240348     0.12500
C1626       C  0.48219401  0.79855469  0.45169829     0.62100
F1627       F  0.08859129  0.81455304  0.53437996    -0.23100
F1628       F  0.06518939  0.77736814  0.57192396    -0.20400
F1629       F  0.06584273  0.82333383  0.57485327    -0.20100
F1630       F  0.45859845  0.77488833  0.42906498    -0.20200
F1631       F  0.50362957  0.82160105  0.43292982    -0.20500
F1632       F  0.47040827  0.81262282  0.47008069    -0.23200
C1633       C  0.35614384  0.71723595  0.31733843    -0.06000
C1634       C  0.35802772  0.74315806  0.33447562    -0.00100
C1635       C  0.38631404  0.77065202  0.34615136    -0.08600
C1636       C  0.41247074  0.77102343  0.34058388    -0.06000
C1637       C  0.41062268  0.74504471  0.32367649    -0.00100
C1638       C  0.38234385  0.71767754  0.31162421    -0.08500
C1639       C  0.37989774  0.68900716  0.29388169     0.61800
H1640       H  0.33391417  0.69647193  0.30893915     0.12500
H1641       H  0.43468774  0.79176656  0.34907081     0.12500
C1642       C  0.38884019  0.79956334  0.36337527     0.62100
F1643       F  0.35010615  0.66361896  0.28827715    -0.23100
F1644       F  0.39682147  0.67944842  0.31449395    -0.20400
F1645       F  0.39065895  0.69663511  0.26193874    -0.20100
F1646       F  0.37739939  0.79221355  0.39495349    -0.20200
F1647       F  0.37259688  0.80941864  0.34194587    -0.20500
F1648       F  0.41873589  0.82464585  0.36963047    -0.23200
C1649       C  0.13633178  0.76133216  0.36777922    -0.06000
C1650       C  0.11796847  0.76070904  0.33791881    -0.00100
C1651       C  0.12133487  0.75165012  0.30480586    -0.08600
C1652       C  0.14188318  0.74185027  0.30345102    -0.06000
C1653       C  0.15968359  0.74170414  0.33338820    -0.00100
C1654       C  0.15681161  0.75137408  0.36640973    -0.08500
C1655       C  0.17502850  0.75159285  0.40010917     0.61800
H1656       H  0.13371789  0.76879895  0.39273086     0.12500
H1657       H  0.14433852  0.73418215  0.27852181     0.12500
C1658       C  0.10282719  0.75077081  0.27105071     0.62100
F1659       F  0.16805610  0.76189473  0.42885630    -0.23100
F1660       F  0.20567840  0.77181591  0.39833719    -0.20400
F1661       F  0.16880899  0.72125034  0.40555281    -0.20100
F1662       F  0.10660178  0.78027571  0.26640644    -0.20200
F1663       F  0.07254853  0.72817042  0.27218854    -0.20500
F1664       F  0.11160465  0.74288883  0.24210762    -0.23200
C1665       C  0.53694135  0.77980320  0.13911568    -0.06000
C1666       C  0.04073872  0.75669055  0.13462130    -0.00100
C1667       C  0.04166109  0.73579008  0.15938997    -0.08600
C1668       C  0.03943839  0.74065784  0.19460690    -0.06000
C1669       C  0.03698228  0.76593402  0.20644103    -0.00100
C1670       C  0.53619072  0.78523772  0.17471483    -0.08500
C1671       C  0.53944933  0.81624773  0.18633782     0.61800
H1672       H  0.53810221  0.79689386  0.12083856     0.12500
H1673       H  0.03823049  0.72360361  0.21294737     0.12500
C1674       C  0.04481229  0.70819571  0.14915704     0.62100
F1675       F  0.54831689  0.83766666  0.16050416    -0.23100
F1676       F  0.56136825  0.83028307  0.21504587    -0.20400
F1677       F  0.51191463  0.81063333  0.19453834    -0.20100
F1678       F  0.06721286  0.71803284  0.12750269    -0.20200
F1679       F  0.01746014  0.68384189  0.13227616    -0.20500
F1680       F  0.05293526  0.69634488  0.17800143    -0.23200
C1681       C  0.96290824  0.52057411  0.50837791    -0.06000
C1682       C  0.46705376  0.50856844  0.53044049    -0.00100
C1683       C  0.46001154  0.97906463  0.51479814    -0.08600
C1684       C  0.46646050  0.97740979  0.48051709    -0.06000
C1685       C  0.47859420  0.00397350  0.46002966    -0.00100
C1686       C  0.96915522  0.52023061  0.47362338    -0.08500
C1687       C  0.96319979  0.54030537  0.44804156     0.61800
H1688       H  0.95577433  0.53623105  0.51665658     0.12500
H1689       H  0.46291009  0.95539733  0.46982840     0.12500
C1690       C  0.44839547  0.95024492  0.53633497     0.62100
F1691       F  0.94969990  0.55458627  0.46248373    -0.23100
F1692       F  0.94376777  0.52144932  0.41918500    -0.20400
F1693       F  0.99031926  0.56414731  0.43793143    -0.20100
F1694       F  0.42050973  0.94232128  0.54579474    -0.20200
F1695       F  0.46870586  0.95685245  0.56599700    -0.20500
F1696       F  0.44468619  0.92424293  0.51806189    -0.23200
C1697       C  0.02040088  0.89789781  0.36425275    -0.06000
C1698       C  0.00300105  0.90506144  0.33978381    -0.00100
C1699       C  0.48035075  0.87929967  0.32027924    -0.08600
C1700       C  0.48170229  0.85197782  0.31332150    -0.06000
C1701       C  0.00582048  0.84902606  0.33070418    -0.00100
C1702       C  0.02249876  0.87073130  0.36027441    -0.08500
C1703       C  0.04320161  0.86621620  0.38735771     0.61800
H1704       H  0.03330859  0.91459186  0.38647806     0.12500
H1705       H  0.46233012  0.83159188  0.29861367     0.12500
C1706       C  0.45174228  0.87955178  0.30832676     0.62100
F1707       F  0.06006736  0.89216721  0.41108273    -0.23100
F1708       F  0.06343606  0.86211161  0.37115977    -0.20400
F1709       F  0.02602509  0.84010025  0.40586844    -0.20100
F1710       F  0.45783482  0.90240369  0.28452154    -0.20200
F1711       F  0.44162872  0.88638844  0.33670300    -0.20500
F1712       F  0.42859481  0.85051657  0.29276081    -0.23200
C1713       C  0.03647296  0.65692540  0.36061669    -0.06000
C1714       C  0.01653533  0.66422952  0.34112397    -0.00100
C1715       C  0.48763133  0.63551854  0.31010078    -0.08600
C1716       C  0.48558837  0.60588926  0.30690057    -0.06000
C1717       C  0.01027119  0.60329442  0.33239471    -0.00100
C1718       C  0.03393134  0.62708717  0.35665854    -0.08500
C1719       C  0.05705840  0.62157463  0.37755274     0.61800
H1720       H  0.05455656  0.67519950  0.37891614     0.12500
H1721       H  0.46687544  0.58687297  0.28988930     0.12500
C1722       C  0.46397791  0.64046782  0.28965476     0.62100
F1723       F  0.08056825  0.64908044  0.39564825    -0.23100
F1724       F  0.06956891  0.61100259  0.35545182    -0.20400
F1725       F  0.04313024  0.59919259  0.40147305    -0.20100
F1726       F  0.47752501  0.66347526  0.26618889    -0.20200
F1727       F  0.45101296  0.65007950  0.31221349    -0.20500
F1728       F  0.44096925  0.61294981  0.27114296    -0.23200
C1729       C  0.39347650  0.50569018  0.29571613    -0.06000
C1730       C  0.40211657  0.48720497  0.31520508    -0.00100
C1731       C  0.37493105  0.96901432  0.30379705    -0.08600
C1732       C  0.34861696  0.96844826  0.30960273    -0.06000
C1733       C  0.35027766  0.99284522  0.32983480    -0.00100
C1734       C  0.36671830  0.50487359  0.29994120    -0.08500
C1735       C  0.35884904  0.52622187  0.27910646     0.61800
H1736       H  0.40865293  0.52187831  0.27823315     0.12500
H1737       H  0.32643898  0.94831354  0.29963022     0.12500
C1738       C  0.37264131  0.94109589  0.28447240     0.62100
F1739       F  0.38140596  0.54575905  0.25909140    -0.23100
F1740       F  0.35518202  0.54530654  0.30146422    -0.20400
F1741       F  0.33231597  0.50796222  0.25671863    -0.20100
F1742       F  0.38716075  0.92910246  0.30548413    -0.20200
F1743       F  0.38617092  0.95072322  0.25430482    -0.20500
F1744       F  0.34270713  0.91685719  0.27530794    -0.23200
C1745       C  0.15740163  0.51070052  0.35432740    -0.06000
C1746       C  0.14795814  0.48195537  0.33584243    -0.00100
C1747       C  0.11497413  0.95722140  0.32709450    -0.08600
C1748       C  0.09300512  0.96465689  0.33163544    -0.06000
C1749       C  0.10118287  0.99405028  0.34714260    -0.00100
C1750       C  0.13684715  0.52004226  0.35939682    -0.08500
C1751       C  0.14780163  0.55203316  0.37732795     0.61800
H1752       H  0.18133187  0.52640661  0.36367494     0.12500
H1753       H  0.06922565  0.94768586  0.32278355     0.12500
C1754       C  0.10555262  0.92519938  0.31032777     0.62100
F1755       F  0.17912300  0.56963425  0.38563223    -0.23100
F1756       F  0.13482358  0.54780570  0.40774527    -0.20400
F1757       F  0.13948981  0.56913562  0.35552019    -0.20100
F1758       F  0.11866762  0.91148539  0.33077165    -0.20200
F1759       F  0.11490180  0.92895766  0.27762967    -0.20500
F1760       F  0.07431640  0.90458857  0.30660452    -0.23200
C1761       C  0.50106871  0.48532578  0.18930026    -0.06000
C1762       C  0.03043360  0.50932695  0.20935517    -0.00100
C1763       C  0.04752963  0.03274248  0.19056942    -0.08600
C1764       C  0.04833604  0.02896230  0.15480197    -0.06000
C1765       C  0.03029235  0.99932691  0.13573951    -0.00100
C1766       C  0.49847493  0.48145784  0.15268860    -0.08500
C1767       C  0.46714125  0.46112035  0.13208019     0.61800
H1768       H  0.48088728  0.47371003  0.20242345     0.12500
H1769       H  0.06238011  0.04986357  0.14121658     0.12500
C1770       C  0.06701368  0.06547382  0.20923621     0.62100
F1771       F  0.47198746  0.91569484  0.15532437    -0.23100
F1772       F  0.50380839  0.92883304  0.11530563    -0.20400
F1773       F  0.46167255  0.47916831  0.10851907    -0.20100
F1774       F  0.08243439  0.06393825  0.23996158    -0.20200
F1775       F  0.03552673  0.57515345  0.21046268    -0.20500
F1776       F  0.07757877  0.59276529  0.18477642    -0.23200
O1777       O  0.49834737  0.48380900  0.42298382    -0.81100
O1778       O  0.53424041  0.49661067  0.27061732    -0.65800
O1779       O  0.52613001  0.01122754  0.36175633    -1.12400
C1780       C  0.93016126  0.99554114  0.31650209     1.05800
O1781       O  0.01449004  0.02725962  0.25277649    -0.79000
O1782       O  0.99008450  0.05322834  0.29189858    -0.66600
Ni1783     Ni  0.53402078  0.49154281  0.40230455     1.34900
C1784       C  0.99980910  0.06586060  0.32285200     0.84500
O1785       O  0.56607268  0.00554624  0.32484406    -0.79500
O1786       O  0.57011806  0.49750513  0.38610258    -0.89800
C1787       C  0.52365627  0.00708874  0.24333235     0.84100
O1788       O  0.51237330  0.44951916  0.37954278    -0.68000
O1789       O  0.93785354  0.99671961  0.28614576    -0.87300
C1790       C  0.51256954  0.44115921  0.34847878     0.84900
C1791       C  0.58231740  0.50473632  0.35796633     1.06500
H1792       H  0.97473096  0.47445453  0.30755405     0.38300
O1793       O  0.98955280  0.49694853  0.31108320    -1.10000
O1794       O  0.00333499  0.05084549  0.34815661    -0.66600
Ni1795     Ni  0.98598850  0.00557726  0.35507748     1.26300
O1796       O  0.51840261  0.45987712  0.32371707    -0.66800
O1797       O  0.95050632  0.50297233  0.34867896    -0.79100
C1798       C  0.99248799  0.50200550  0.42935061     0.84300
O1799       O  0.98610458  0.01580941  0.40286683    -0.66300
Ni1800     Ni  0.97645723  0.01184258  0.27090732     1.27400
Ni1801     Ni  0.53239609  0.50458137  0.31882817     1.26100
H1802       H  0.54154290  0.03344994  0.36646618     0.38800
O1803       O  0.51252428  0.23853828  0.41732157    -0.81100
O1804       O  0.53102509  0.24629705  0.26085093    -0.65800
O1805       O  0.53691334  0.26760781  0.35733199    -1.11200
C1806       C  0.93829905  0.24723300  0.32502272     1.05800
O1807       O  0.52000393  0.28265114  0.24856242    -0.79000
O1808       O  0.99403578  0.30512168  0.29379200    -0.66600
Ni1809     Ni  0.54551789  0.24568186  0.39266907     1.34900
C1810       C  0.50741020  0.32115833  0.32108578     0.84500
O1811       O  0.57396294  0.26253342  0.31492208    -0.79500
O1812       O  0.57873956  0.25084213  0.37061272    -0.89800
C1813       C  0.52910754  0.26476575  0.23918890     0.84100
O1814       O  0.52192955  0.20309029  0.37253536    -0.68000
O1815       O  0.94371365  0.24782837  0.29359010    -0.87300
C1816       C  0.51683780  0.19259508  0.34107121     0.84900
C1817       C  0.58720230  0.25617473  0.34025814     1.06500
H1818       H  0.98022028  0.22420454  0.30885360     0.38300
O1819       O  0.99408967  0.24694629  0.31094554    -1.10000
O1820       O  0.51428715  0.30764006  0.34550628    -0.66600
Ni1821     Ni  0.99698864  0.26089678  0.35782802     1.26300
O1822       O  0.51907173  0.20987347  0.31539711    -0.66800
O1823       O  0.95692569  0.25262743  0.35214091    -0.79100
C1824       C  0.00763900  0.26004582  0.43109287     0.84300
O1825       O  0.00134096  0.27342714  0.40628445    -0.66300
Ni1826     Ni  0.98056843  0.26361914  0.27376309     1.27400
Ni1827     Ni  0.53426899  0.25522571  0.30986497     1.26100
H1828       H  0.55237494  0.28988847  0.36127726     0.38800
O1829       O  0.75336816  0.46648098  0.42195770    -0.81100
O1830       O  0.75297517  0.46067296  0.26307904    -0.65800
O1831       O  0.76778080  0.99082431  0.35692360    -1.12400
C1832       C  0.66968296  0.97404844  0.33109022     1.05800
O1833       O  0.74076379  0.99490812  0.24946345    -0.79000
O1834       O  0.72785088  0.02835257  0.29291625    -0.66600
Ni1835     Ni  0.78533628  0.47671510  0.39383275     1.34900
C1836       C  0.73825522  0.04154876  0.32349551     0.84500
O1837       O  0.80118503  0.98284545  0.31186754    -0.79500
O1838       O  0.81846165  0.48710005  0.36861513    -0.89800
C1839       C  0.74789010  0.97517612  0.24098601     0.84100
O1840       O  0.76719216  0.43316851  0.37771392    -0.68000
O1841       O  0.67428418  0.97587444  0.29925912    -0.87300
C1842       C  0.75708802  0.41885187  0.34765051     0.84900
C1843       C  0.82225527  0.48874538  0.33649158     1.06500
H1844       H  0.70787554  0.44398111  0.31360984     0.38300
O1845       O  0.72181172  0.46662184  0.31344529    -1.10000
O1846       O  0.74122949  0.02664664  0.34900186    -0.66600
Ni1847     Ni  0.72792930  0.98273153  0.35761437     1.26300
O1848       O  0.75100890  0.43147228  0.32144049    -0.66800
O1849       O  0.69032173  0.47689946  0.36016815    -0.79100
C1850       C  0.74629860  0.48657358  0.42951959     0.84300
O1851       O  0.73594638  0.99684735  0.40476631    -0.66300
Ni1852     Ni  0.70789834  0.98479538  0.27558053     1.27400
Ni1853     Ni  0.76187276  0.47480943  0.31110550     1.26100
H1854       H  0.78162004  0.01349123  0.35689616     0.38800
O1855       O  0.75134770  0.21294089  0.42178162    -0.81100
O1856       O  0.77083616  0.21829051  0.26642456    -0.65800
O1857       O  0.77610475  0.24377112  0.36140723    -1.12400
C1858       C  0.68363631  0.23525434  0.32684865     1.05800
O1859       O  0.75560148  0.25002378  0.24542130    -0.79000
O1860       O  0.75132526  0.28829152  0.29318482    -0.66600
Ni1861     Ni  0.78615030  0.22376914  0.39849514     1.34900
C1862       C  0.75433499  0.29906278  0.32407171     0.84500
O1863       O  0.81326764  0.23758637  0.32107983    -0.79500
O1864       O  0.82188655  0.23368939  0.37898237    -0.89800
C1865       C  0.76600023  0.23218467  0.24124696     0.84100
O1866       O  0.76664829  0.18111158  0.37841743    -0.68000
O1867       O  0.69317351  0.24229854  0.29716135    -0.87300
C1868       C  0.75826481  0.16925069  0.34716045     0.84900
C1869       C  0.82938768  0.23778955  0.34830936     1.06500
H1870       H  0.71910607  0.20155854  0.30614455     0.38300
O1871       O  0.73420061  0.22396157  0.30987830    -1.10000
O1872       O  0.75057930  0.28163962  0.34995901    -0.66600
Ni1873     Ni  0.73657934  0.23698154  0.35740441     1.26300
O1874       O  0.75778101  0.18541192  0.32159720    -0.66800
O1875       O  0.69643977  0.22818281  0.35187995    -0.79100
C1876       C  0.74454127  0.23307741  0.42965116     0.84300
O1877       O  0.74060636  0.24883897  0.40598089    -0.66300
Ni1878     Ni  0.72515905  0.24544134  0.27382529     1.27400
Ni1879     Ni  0.77369921  0.23017785  0.31444967     1.26100
H1880       H  0.79082390  0.26631224  0.36450739     0.38800
O1881       O  0.54781100  0.02525117  0.08281234    -0.81100
O1882       O  0.53209901  0.02584576  0.92634475    -0.65800
O1883       O  0.51192000  0.01275239  0.01960245    -1.12400
C1884       C  0.51782211  0.42327673  0.01028320     1.05800
O1885       O  0.99772378  0.47692712  0.91389573    -0.79000
O1886       O  0.96463728  0.43603820  0.96277961    -0.66600
Ni1887     Ni  0.53209490  0.04651786  0.05442979     1.34900
C1888       C  0.95751049  0.42937842  0.99346053     0.84500
O1889       O  0.51936336  0.05810481  0.97125373    -0.79500
O1890       O  0.51746506  0.06916959  0.02731110    -0.89800
C1891       C  0.51500642  0.00345579  0.90329841     0.84100
O1892       O  0.57075042  0.07232330  0.03829308    -0.68000
O1893       O  0.51333773  0.42489116  0.97739790    -0.87300
C1894       C  0.58206575  0.07087291  0.01154923     0.84900
C1895       C  0.51586078  0.07356220  0.99476048     1.06500
H1896       H  0.54541862  0.49145147  0.98282208     0.38300
O1897       O  0.52408037  0.48416649  0.98165619    -1.10000
O1898       O  0.97683179  0.44480354  0.02038540    -0.66600
Ni1899     Ni  0.51381875  0.47783477  0.02805683     1.26300
O1900       O  0.56666516  0.04896885  0.98722472    -0.66800
O1901       O  0.51933474  0.44258374  0.03338140    -0.79100
C1902       C  0.52464787  0.50018688  0.09739228     0.84300
O1903       O  0.50676524  0.47637094  0.07614220    -0.66300
Ni1904     Ni  0.00376580  0.45119518  0.94773561     1.27400
Ni1905     Ni  0.52289684  0.02128419  0.97365569     1.26100
H1906       H  0.98814104  0.00142291  0.01965538     0.38800
O1907       O  0.48375609  0.25833076  0.91744975    -0.81100
O1908       O  0.54215239  0.27060000  0.07154229    -0.65800
O1909       O  0.51822939  0.25046252  0.97289584    -1.12400
C1910       C  0.92231943  0.16734141  0.01043458     1.05800
O1911       O  0.52131768  0.22026104  0.07955231    -0.79000
O1912       O  0.98606326  0.16978683  0.03361214    -0.66600
Ni1913     Ni  0.52432717  0.28277944  0.94219640     1.34900
C1914       C  0.48962711  0.16960504  0.00012744     0.84500
O1915       O  0.57310371  0.29182102  0.01498863    -0.79500
O1916       O  0.56567386  0.30955469  0.96357566    -0.89800
C1917       C  0.53529667  0.24855436  0.09231276     0.84100
O1918       O  0.51138220  0.30398036  0.96989954    -0.68000
O1919       O  0.93719236  0.17393743  0.04092003    -0.87300
C1920       C  0.51669113  0.31046586  0.00250215     0.84900
C1921       C  0.58303295  0.31075806  0.99046920     1.06500
H1922       H  0.97682974  0.23854184  0.03223554     0.38300
O1923       O  0.98753967  0.22839621  0.02653513    -1.10000
O1924       O  0.48852252  0.18747498  0.97728525    -0.66600
Ni1925     Ni  0.97557033  0.21528283  0.97807125     1.26300
O1926       O  0.52485669  0.29631346  0.02414367    -0.66800
O1927       O  0.93442357  0.18165658  0.98367919    -0.79100
C1928       C  0.96947384  0.22639966  0.90772797     0.84300
O1929       O  0.96605881  0.20513777  0.92840164    -0.66300
Ni1930     Ni  0.97921129  0.19747725  0.05977535     1.27400
Ni1931     Ni  0.53139389  0.26174986  0.02170083     1.26100
H1932       H  0.52869643  0.24078934  0.96490912     0.38800
O1933       O  0.76460221  0.01580308  0.09080879    -0.81100
O1934       O  0.74956008  0.01032240  0.92626822    -0.65800
O1935       O  0.73511769  0.99594592  0.02087708    -1.12400
C1936       C  0.78625263  0.44184651  0.01286749     1.05800
O1937       O  0.73623122  0.46390068  0.91451121    -0.79000
O1938       O  0.72136501  0.42042289  0.96155038    -0.66600
Ni1939     Ni  0.74912799  0.03136709  0.05326445     1.34900
C1940       C  0.70735748  0.41680964  0.98756899     0.84500
O1941       O  0.72125472  0.02542656  0.96743894    -0.79500
O1942       O  0.73484429  0.05084746  0.02029647    -0.89800
C1943       C  0.74137435  0.98788602  0.90393634     0.84100
O1944       O  0.78902864  0.05555778  0.04020859    -0.68000
O1945       O  0.78103408  0.44124138  0.97985622    -0.87300
C1946       C  0.79815615  0.06050434  0.01044336     0.84900
C1947       C  0.72378151  0.04646818  0.98836525     1.06500
H1948       H  0.78900328  0.50185957  0.98362677     0.38300
O1949       O  0.76738969  0.48655472  0.98163754    -1.10000
O1950       O  0.71882875  0.43669931  0.01373245    -0.66600
Ni1951     Ni  0.75682165  0.47590989  0.02723710     1.26300
O1952       O  0.78108663  0.04436775  0.98286569    -0.66800
O1953       O  0.77807762  0.45447122  0.03422202    -0.79100
C1954       C  0.75348936  0.48797377  0.09655601     0.84300
O1955       O  0.74649028  0.46690356  0.07300484    -0.66300
Ni1956     Ni  0.75896458  0.45372396  0.94853001     1.27400
Ni1957     Ni  0.74253523  0.00416712  0.97350393     1.26100
H1958       H  0.71352523  0.98179636  0.02139259     0.38800
O1959       O  0.80462278  0.25443439  0.08694575    -0.81100
O1960       O  0.77009553  0.28730734  0.94029027    -0.65800
O1961       O  0.76967297  0.26335901  0.03486263    -1.12400
C1962       C  0.75459312  0.17000660  0.97817672     1.05800
O1963       O  0.72911155  0.24043176  0.92803312    -0.79000
O1964       O  0.70776112  0.18540216  0.96095192    -0.66600
Ni1965     Ni  0.80166915  0.28954891  0.07065557     1.34900
C1966       C  0.70047352  0.18305385  0.99145432     0.84500
O1967       O  0.77355356  0.31502574  0.00303804    -0.79500
O1968       O  0.79956172  0.32552779  0.05725888    -0.89800
C1969       C  0.74785353  0.26743606  0.91821576     0.84100
O1970       O  0.83599736  0.30431393  0.04514829    -0.68000
O1971       O  0.75618506  0.18370595  0.94988474    -0.87300
C1972       C  0.83930213  0.31445916  0.01465549     0.84900
C1973       C  0.78776611  0.33271292  0.03097854     1.06500
H1974       H  0.79065676  0.24455883  0.97402439     0.38300
O1975       O  0.77050579  0.23904897  0.97806588    -1.10000
O1976       O  0.71964042  0.20169069  0.01696566    -0.66600
Ni1977     Ni  0.76420420  0.22294603  0.02315436     1.26300
O1978       O  0.81642486  0.30412837  0.99092361    -0.66800
O1979       O  0.75827225  0.18282919  0.00852283    -0.79100
C1980       C  0.78118472  0.22951753  0.09527196     0.84300
O1981       O  0.76073106  0.21117162  0.07084387    -0.66300
Ni1982     Ni  0.74330853  0.21251641  0.93937830     1.27400
Ni1983     Ni  0.77190214  0.27746131  0.98877460     1.26100
H1984       H  0.75102466  0.25983829  0.04216205     0.38800
O1985       O  0.49730233  0.03572760  0.58091303    -0.81100
O1986       O  0.52717474  0.03039160  0.73401674    -0.65800
O1987       O  0.49613304  0.50196081  0.63959304    -1.12400
C1988       C  0.92014863  0.02782664  0.66983715     1.05800
O1989       O  0.98051824  0.49988395  0.74845181    -0.79000
O1990       O  0.92745130  0.47348892  0.70533772    -0.66600
Ni1991     Ni  0.52153141  0.02035620  0.60254287     1.34900
C1992       C  0.92008934  0.45771040  0.67634569     0.84500
O1993       O  0.54562384  0.50547670  0.68439465    -0.79500
O1994       O  0.54717090  0.00582819  0.62381689    -0.89800
C1995       C  0.50526861  0.50916736  0.75627976     0.84100
O1996       O  0.55135953  0.06196264  0.62163119    -0.68000
O1997       O  0.93267191  0.53050180  0.70041160    -0.87300
C1998       C  0.56048437  0.07571859  0.65179415     0.84900
C1999       C  0.55766836  0.00564815  0.65539703     1.06500
H2000       H  0.99112481  0.04969323  0.68779454     0.38300
O2001       O  0.98119110  0.02684861  0.68648720    -1.10000
O2002       O  0.93535298  0.46943102  0.65067410    -0.66600
Ni2003     Ni  0.96462419  0.51332929  0.64084551     1.26300
O2004       O  0.54500603  0.06341452  0.67725291    -0.66800
O2005       O  0.93001076  0.02208366  0.64307505    -0.79100
C2006       C  0.96940522  0.01266819  0.56934761     0.84300
O2007       O  0.95164815  0.50036121  0.59129126    -0.66300
Ni2008     Ni  0.95760547  0.51564472  0.72335489     1.27400
Ni2009     Ni  0.51419961  0.01927559  0.68483943     1.26100
H2010       H  0.48678634  0.47919104  0.63772740     0.38800
O2011       O  0.49287401  0.23267669  0.75050113    -0.81100
O2012       O  0.51779210  0.26827843  0.60034872    -0.65800
O2013       O  0.49795406  0.26784180  0.69289418    -1.12400
C2014       C  0.90855736  0.19033170  0.64569669     1.05800
O2015       O  0.98164597  0.27820704  0.58872366    -0.79000
O2016       O  0.93177237  0.25922703  0.62304646    -0.66600
Ni2017     Ni  0.52388170  0.27130190  0.73317182     1.34900
C2018       C  0.92878633  0.26451711  0.65405126     0.84500
O2019       O  0.54730114  0.30703278  0.65901278    -0.79500
O2020       O  0.55634308  0.30964275  0.71780283    -0.89800
C2021       C  0.00481559  0.27919411  0.57977369     0.84100
O2022       O  0.54273798  0.25050844  0.71671049    -0.68000
O2023       O  0.91793687  0.19997208  0.61634806    -0.87300
C2024       C  0.54800987  0.24674828  0.68641277     0.84900
C2025       C  0.56433407  0.31937556  0.68783387     1.06500
H2026       H  0.97869417  0.22200625  0.63889997     0.38300
O2027       O  0.97614610  0.23969606  0.64260983    -1.10000
O2028       O  0.94449042  0.26207776  0.68051855    -0.66600
Ni2029     Ni  0.96425058  0.23750593  0.68783410     1.26300
O2030       O  0.53219522  0.24710939  0.65867363    -0.66800
O2031       O  0.92513253  0.20078515  0.67506628    -0.79100
C2032       C  0.97209888  0.23206366  0.75971970     0.84300
O2033       O  0.95568444  0.23553678  0.73539790    -0.66300
Ni2034     Ni  0.95028020  0.23898387  0.60344640     1.27400
Ni2035     Ni  0.50963526  0.26847594  0.64798576     1.26100
H2036       H  0.00171739  0.29240023  0.70231681     0.38800
O2037       O  0.77210155  0.03425141  0.75001304    -0.81100
O2038       O  0.75998082  0.01972704  0.59504532    -0.65800
O2039       O  0.74861107  0.04076679  0.68337849    -1.12400
C2040       C  0.67625366  0.42922236  0.67549806     1.05800
O2041       O  0.70838608  0.49788806  0.57910247    -0.79000
O2042       O  0.66993252  0.48588507  0.62618291    -0.66600
Ni2043     Ni  0.78292143  0.06617100  0.71634489     1.34900
C2044       C  0.66583141  0.49196920  0.65611436     0.84500
O2045       O  0.78341972  0.07437740  0.63183221    -0.79500
O2046       O  0.79379479  0.09880300  0.68483721    -0.89800
C2047       C  0.73736473  0.00646766  0.57183547     0.84100
O2048       O  0.81308592  0.05827068  0.70153481    -0.68000
O2049       O  0.67208294  0.43385733  0.64339217    -0.87300
C2050       C  0.81315642  0.54012196  0.67357813     0.84900
C2051       C  0.79462539  0.09920273  0.65189259     1.06500
H2052       H  0.73652461  0.47542129  0.64525906     0.38300
O2053       O  0.72651687  0.48725095  0.64515267    -1.10000
O2054       O  0.68474396  0.49639168  0.68297728    -0.66600
Ni2055     Ni  0.72182558  0.49402482  0.69169425     1.26300
O2056       O  0.78957788  0.52537065  0.65088139    -0.66800
O2057       O  0.69679771  0.45022217  0.69779323    -0.79100
C2058       C  0.74648629  0.51395986  0.75924993     0.84300
O2059       O  0.72183088  0.50303486  0.73913972    -0.66300
Ni2060     Ni  0.69109665  0.46655891  0.61234652     1.27400
Ni2061     Ni  0.75582552  0.03138128  0.63938367     1.26100
H2062       H  0.73713389  0.05103273  0.67980325     0.38800
O2063       O  0.71418926  0.23680475  0.58701876    -0.81100
O2064       O  0.72263430  0.25788074  0.74700399    -0.65800
O2065       O  0.72765627  0.27207760  0.64935296    -1.12400
C2066       C  0.81827020  0.26630983  0.67431456     1.05800
O2067       O  0.77042322  0.29625380  0.75408635    -0.79000
O2068       O  0.81247126  0.32246993  0.70961629    -0.66600
Ni2069     Ni  0.69360248  0.25021466  0.61453420     1.34900
C2070       C  0.81071092  0.33214699  0.67959723     0.84500
O2071       O  0.68633468  0.26642995  0.69622359    -0.79500
O2072       O  0.66956985  0.26109861  0.63888608    -0.89800
C2073       C  0.74673268  0.27696341  0.76747057     0.84100
O2074       O  0.67357050  0.20986389  0.63384594    -0.68000
O2075       O  0.81593159  0.27029535  0.70628144    -0.87300
C2076       C  0.67392157  0.19967552  0.66399971     0.84900
C2077       C  0.66650142  0.26336111  0.67089564     1.06500
H2078       H  0.75101921  0.23723168  0.69705864     0.38300
O2079       O  0.75764727  0.25933376  0.69516325    -1.10000
O2080       O  0.79076173  0.31411114  0.65441975    -0.66600
Ni2081     Ni  0.76282405  0.26810121  0.64760531     1.26300
O2082       O  0.69375172  0.21702500  0.68974476    -0.66800
O2083       O  0.79878117  0.26425957  0.64902314    -0.79100
C2084       C  0.73999548  0.25448199  0.57649406     0.84300
O2085       O  0.76313851  0.27342562  0.59806854    -0.66300
Ni2086     Ni  0.79195993  0.28234004  0.72944585     1.27400
Ni2087     Ni  0.72235862  0.26310263  0.69714427     1.26100
H2088       H  0.73451333  0.29426654  0.64781783     0.38800
C2089       C  0.82786425  0.15514530  0.66325291    -0.06000
C2090       C  0.81304964  0.13021261  0.63771598    -0.00100
C2091       C  0.82808212  0.13159468  0.60910881    -0.08600
C2092       C  0.85970859  0.15020077  0.61347968    -0.06000
C2093       C  0.87579182  0.16842684  0.64486972    -0.00100
C2094       C  0.85939731  0.17061374  0.67083025    -0.08500
C2095       C  0.87391108  0.18668096  0.70708783     0.61800
H2096       H  0.81462445  0.15620588  0.68234658     0.12500
H2097       H  0.87177349  0.15021980  0.59233694     0.12500
C2098       C  0.81163043  0.11270296  0.57484906     0.62100
F2099       F  0.85250753  0.18239800  0.72839593    -0.23100
F2100       F  0.89303761  0.21880158  0.70505768    -0.20400
F2101       F  0.88996059  0.17391016  0.72303927    -0.20100
F2102       F  0.78051849  0.09938007  0.57298422    -0.20200
F2103       F  0.81766170  0.08890420  0.57088371    -0.20500
F2104       F  0.82169357  0.13251453  0.54771173    -0.23200
C2105       C  0.61043400  0.36711391  0.71600166    -0.06000
C2106       C  0.59573270  0.34554098  0.68668397    -0.00100
C2107       C  0.61223279  0.34800621  0.65857915    -0.08600
C2108       C  0.64202825  0.37348802  0.66015408    -0.06000
C2109       C  0.65432757  0.39792583  0.68621308    -0.00100
C2110       C  0.63970601  0.39378952  0.71618555    -0.08500
C2111       C  0.65395133  0.41787568  0.74723145     0.61800
H2112       H  0.59812728  0.36402340  0.73797298     0.12500
H2113       H  0.65475347  0.37678644  0.63850414     0.12500
C2114       C  0.59880610  0.32555400  0.62593449     0.62100
F2115       F  0.63687342  0.40716801  0.77477735    -0.23100
F2116       F  0.65620663  0.44592458  0.73785664    -0.20400
F2117       F  0.68258869  0.42353775  0.75882071    -0.20100
F2118       F  0.58624308  0.29459275  0.63483760    -0.20200
F2119       F  0.62051636  0.33137238  0.60438702    -0.20500
F2120       F  0.57687588  0.32926562  0.60684945    -0.23200
C2121       C  0.87381343  0.28556548  0.68969187    -0.06000
C2122       C  0.84644626  0.26613295  0.66731654    -0.00100
C2123       C  0.84726675  0.24765062  0.64000891    -0.08600
C2124       C  0.87506980  0.24963078  0.63614541    -0.06000
C2125       C  0.90251512  0.26905148  0.65854662    -0.00100
C2126       C  0.90169698  0.28781778  0.68567004    -0.08500
C2127       C  0.92920148  0.31133096  0.71069387     0.61800
H2128       H  0.87367743  0.29999440  0.71056507     0.12500
H2129       H  0.87518808  0.23468037  0.61593837     0.12500
C2130       C  0.81863245  0.22445176  0.61614701     0.62100
F2131       F  0.93150896  0.34044224  0.71073887    -0.23100
F2132       F  0.95626367  0.31606801  0.70212494    -0.20400
F2133       F  0.92539403  0.30072819  0.74391896    -0.20100
F2134       F  0.80856953  0.24078602  0.59554024    -0.20200
F2135       F  0.79620459  0.20428218  0.63591226    -0.20500
F2136       F  0.82354810  0.20600418  0.59427193    -0.23200
C2137       C  0.60371043  0.27198157  0.70444861    -0.06000
C2138       C  0.57717145  0.24746299  0.68430178    -0.00100
C2139       C  0.58032029  0.22729236  0.66173614    -0.08600
C2140       C  0.60983113  0.23355907  0.65854093    -0.06000
C2141       C  0.63647943  0.25881074  0.67770324    -0.00100
C2142       C  0.63319726  0.27794972  0.70172424    -0.08500
C2143       C  0.66067728  0.30526865  0.72341913     0.61800
H2144       H  0.60127259  0.28737881  0.72176574     0.12500
H2145       H  0.61232116  0.21837845  0.64093969     0.12500
C2146       C  0.55264944  0.19858837  0.64223212     0.62100
F2147       F  0.65280414  0.32263916  0.74285664    -0.23100
F2148       F  0.68121043  0.32554047  0.70184088    -0.20400
F2149       F  0.67447470  0.29367821  0.74623560    -0.20100
F2150       F  0.53819753  0.20822143  0.61790788    -0.20200
F2151       F  0.53274551  0.18026338  0.66539139    -0.20500
F2152       F  0.56029415  0.17984640  0.62499264    -0.23200
C2153       C  0.85554642  0.37014240  0.65026015    -0.06000
C2154       C  0.83508899  0.36541203  0.67398390    -0.00100
C2155       C  0.84166557  0.39148870  0.69608385    -0.08600
C2156       C  0.86938951  0.42055837  0.69551329    -0.06000
C2157       C  0.89098216  0.42524659  0.67317592    -0.00100
C2158       C  0.88326345  0.39964164  0.64914548    -0.08500
C2159       C  0.90432001  0.40278242  0.62317877     0.61800
H2160       H  0.85020839  0.34994751  0.63353837     0.12500
H2161       H  0.87433520  0.44015076  0.71296134     0.12500
C2162       C  0.81931060  0.38878681  0.72009314     0.62100
F2163       F  0.89350201  0.37441793  0.60428447    -0.23100
F2164       F  0.93268119  0.41205712  0.64053799    -0.20400
F2165       F  0.90694479  0.42502524  0.59982067    -0.20100
F2166       F  0.81824214  0.36994036  0.74688241    -0.20200
F2167       F  0.79062077  0.37553167  0.70157961    -0.20500
F2168       F  0.82744648  0.41807677  0.73470838    -0.23200
C2169       C  0.64143975  0.14446017  0.63936809    -0.06000
C2170       C  0.64873998  0.16597891  0.66744049    -0.00100
C2171       C  0.62805516  0.15652639  0.69262275    -0.08600
C2172       C  0.59962200  0.12717206  0.68676851    -0.06000
C2173       C  0.59126350  0.10663597  0.65693316    -0.00100
C2174       C  0.61377004  0.11497486  0.63376987    -0.08500
C2175       C  0.60963761  0.09333671  0.60299656     0.61800
H2176       H  0.65755782  0.15176659  0.62063736     0.12500
H2177       H  0.58342745  0.12032859  0.70530705     0.12500
C2178       C  0.63562907  0.17748261  0.72519492     0.62100
F2179       F  0.63607540  0.10473425  0.58778415    -0.23100
F2180       F  0.58752350  0.09083160  0.57749000    -0.20400
F2181       F  0.60170546  0.06370477  0.61405328    -0.20100
F2182       F  0.63902258  0.20604827  0.71627190    -0.20200
F2183       F  0.66240142  0.18296058  0.74372584    -0.20500
F2184       F  0.61305122  0.16360391  0.74680103    -0.23200
C2185       C  0.89557863  0.05616438  0.69037610    -0.06000
C2186       C  0.89458139  0.53383753  0.66366721    -0.00100
C2187       C  0.86536503  0.51148595  0.64560693    -0.08600
C2188       C  0.83980142  0.51443445  0.64917267    -0.06000
C2189       C  0.84196955  0.53930036  0.66966968    -0.00100
C2190       C  0.87065299  0.05980136  0.69451030    -0.08500
C2191       C  0.87605641  0.08582917  0.72039397     0.61800
H2192       H  0.91706543  0.07086417  0.70662401     0.12500
H2193       H  0.81754122  0.49664706  0.63640005     0.12500
C2194       C  0.86083592  0.48371649  0.62375708     0.62100
F2195       F  0.90611648  0.10389662  0.73524729    -0.23100
F2196       F  0.85850527  0.07254386  0.74717060    -0.20400
F2197       F  0.86483720  0.60691592  0.68158977    -0.20100
F2198       F  0.86741146  0.96825328  0.63531133    -0.20200
F2199       F  0.87965447  0.49468730  0.59787080    -0.20500
F2200       F  0.83116129  0.46482378  0.60797724    -0.23200
C2201       C  0.58367733  0.47527319  0.63906164    -0.06000
C2202       C  0.58361894  0.49620494  0.66336934    -0.00100
C2203       C  0.61073516  0.01795327  0.68551571    -0.08600
C2204       C  0.63703650  0.01604856  0.68331852    -0.06000
C2205       C  0.63705224  0.49254079  0.65909038    -0.00100
C2206       C  0.60915951  0.47238913  0.63693905    -0.08500
C2207       C  0.60534998  0.44681156  0.61150631     0.61800
H2208       H  0.56324416  0.46117628  0.62092370     0.12500
H2209       H  0.65675747  0.02892759  0.70271013     0.12500
C2210       C  0.61131526  0.03887437  0.71441529     0.62100
F2211       F  0.57522650  0.42636503  0.59797467    -0.23100
F2212       F  0.61538519  0.42872972  0.62840256    -0.20400
F2213       F  0.62152775  0.46048970  0.58380481    -0.20100
F2214       F  0.58857636  0.02069961  0.73472907    -0.20200
F2215       F  0.60692001  0.06200482  0.70018711    -0.20500
F2216       F  0.63878314  0.05388549  0.73590234    -0.23200
C2217       C  0.77373150  0.29051573  0.86641646    -0.06000
C2218       C  0.74618630  0.27335786  0.88027027    -0.00100
C2219       C  0.71856784  0.25932829  0.85705393    -0.08600
C2220       C  0.71981039  0.26178245  0.82074759    -0.06000
C2221       C  0.74752926  0.27754893  0.80660317    -0.00100
C2222       C  0.77520413  0.29251559  0.83026106    -0.08500
C2223       C  0.80660996  0.30970973  0.81826704     0.61800
H2224       H  0.79451161  0.30108432  0.88440972     0.12500
H2225       H  0.69884196  0.25049408  0.80301264     0.12500
C2226       C  0.68769322  0.24108300  0.87003446     0.62100
F2227       F  0.82972874  0.31994544  0.84576133    -0.23100
F2228       F  0.81120133  0.33622972  0.80150013    -0.20400
F2229       F  0.80922618  0.28963972  0.79619249    -0.20100
F2230       F  0.68735208  0.25704554  0.89905391    -0.20200
F2231       F  0.68143933  0.21128360  0.87842714    -0.20500
F2232       F  0.66473031  0.23735609  0.84492916    -0.23200
C2233       C  0.81045215  0.38488301  0.00805338    -0.06000
C2234       C  0.79288857  0.36435984  0.03227233    -0.00100
C2235       C  0.78175990  0.37478567  0.05743485    -0.08600
C2236       C  0.78519758  0.40457129  0.05433618    -0.06000
C2237       C  0.79875983  0.42306248  0.02660932    -0.00100
C2238       C  0.81466682  0.41494820  0.00579510    -0.08500
C2239       C  0.83514007  0.43671416  0.98022436     0.61800
H2240       H  0.82065163  0.37722963  0.99054359     0.12500
H2241       H  0.77407217  0.41173764  0.07093166     0.12500
C2242       C  0.76434158  0.35367993  0.08547286     0.62100
F2243       F  0.86285307  0.43883441  0.98601096    -0.23100
F2244       F  0.84067015  0.46713098  0.98394374    -0.20400
F2245       F  0.82198515  0.42441178  0.94651757    -0.20100
F2246       F  0.78313928  0.34735753  0.10742075    -0.20200
F2247       F  0.73966096  0.32546148  0.07019688    -0.20500
F2248       F  0.75364049  0.36784668  0.10556322    -0.23200
C2249       C  0.73915377  0.08914665  0.95068004    -0.06000
C2250       C  0.71913456  0.07095828  0.97440562    -0.00100
C2251       C  0.70686385  0.08411349  0.99430836    -0.08600
C2252       C  0.71958017  0.11679993  0.99502804    -0.06000
C2253       C  0.74315858  0.13607378  0.97526237    -0.00100
C2254       C  0.75193411  0.12200744  0.95100987    -0.08500
C2255       C  0.77621661  0.14145291  0.92769113     0.61800
H2256       H  0.74770666  0.07812704  0.93513254     0.12500
H2257       H  0.71109646  0.12734592  0.01140884     0.12500
C2258       C  0.68109856  0.06448944  0.01563017     0.62100
F2259       F  0.78377075  0.12296691  0.90979112    -0.23100
F2260       F  0.80225677  0.16491284  0.94770055    -0.20400
F2261       F  0.76588710  0.15512758  0.90319628    -0.20100
F2262       F  0.69090984  0.07422293  0.05053401    -0.20200
F2263       F  0.67023006  0.03240066  0.01153734    -0.20500
F2264       F  0.65731523  0.06883122  0.00497217    -0.23200
C2265       C  0.72468718  0.00723804  0.85290238    -0.06000
C2266       C  0.74575214  0.49638863  0.86689021    -0.00100
C2267       C  0.75589186  0.48229337  0.84444656    -0.08600
C2268       C  0.75600386  0.48904016  0.80930084    -0.06000
C2269       C  0.74552832  0.50833072  0.79618209    -0.00100
C2270       C  0.72521569  0.01563240  0.81815187    -0.08500
C2271       C  0.70693890  0.03012777  0.80415669     0.61800
H2272       H  0.71101748  0.01063525  0.86950067     0.12500
H2273       H  0.76371919  0.47877056  0.79147303     0.12500
C2274       C  0.76688964  0.46056536  0.85732731     0.62100
F2275       F  0.69283439  0.03485215  0.82975621    -0.23100
F2276       F  0.68451548  0.01028975  0.77784445    -0.20400
F2277       F  0.72601162  0.05922052  0.79134611    -0.20100
F2278       F  0.74259046  0.43226069  0.86604082    -0.20200
F2279       F  0.78861004  0.47490624  0.88616517    -0.20500
F2280       F  0.77986141  0.45358764  0.83214790    -0.23200
C2281       C  0.83663661  0.10775936  0.98167706    -0.06000
C2282       C  0.83014988  0.08631093  0.00816118    -0.00100
C2283       C  0.85425408  0.09050928  0.03295775    -0.08600
C2284       C  0.88319075  0.11750589  0.03259223    -0.06000
C2285       C  0.88999502  0.13983656  0.00708706    -0.00100
C2286       C  0.86636404  0.13439644  0.98036079    -0.08500
C2287       C  0.87200246  0.15677740  0.95129277     0.61800
H2288       H  0.81803186  0.10385144  0.96246097     0.12500
H2289       H  0.90091234  0.12124381  0.05299676     0.12500
C2290       C  0.84977056  0.06709024  0.06056053     0.62100
F2291       F  0.84550158  0.14827101  0.92977924    -0.23100
F2292       F  0.89195196  0.15621316  0.93090213    -0.20400
F2293       F  0.88406746  0.18729552  0.96528839    -0.20100
F2294       F  0.83137554  0.03623267  0.04634613    -0.20200
F2295       F  0.83663285  0.07212282  0.08693359    -0.20500
F2296       F  0.87710425  0.07074277  0.07490027    -0.23200
C2297       C  0.66679635  0.37554873  0.01974736    -0.06000
C2298       C  0.67621328  0.38820436  0.98760757    -0.00100
C2299       C  0.65534543  0.37411574  0.95676776    -0.08600
C2300       C  0.62619240  0.34789020  0.95942197    -0.06000
C2301       C  0.61613888  0.33583347  0.99156529    -0.00100
C2302       C  0.63708215  0.34972306  0.02245994    -0.08500
C2303       C  0.62829841  0.33824005  0.05822015     0.61800
H2304       H  0.68300084  0.38640271  0.04301585     0.12500
H2305       H  0.61056379  0.33683929  0.93580230     0.12500
C2306       C  0.66275602  0.38736171  0.92114943     0.62100
F2307       F  0.65185511  0.35609017  0.08453490    -0.23100
F2308       F  0.62079086  0.30709702  0.05984742    -0.20400
F2309       F  0.60377594  0.34043906  0.06453222    -0.20100
F2310       F  0.68483659  0.38300927  0.91024188    -0.20200
F2311       F  0.67284643  0.41933355  0.92296426    -0.20500
F2312       F  0.63761170  0.37254311  0.89596935    -0.23200
C2313       C  0.95314508  0.23908616  0.85046642    -0.06000
C2314       C  0.96203537  0.22019024  0.86898937    -0.00100
C2315       C  0.46860248  0.20200155  0.84853667    -0.08600
C2316       C  0.46745575  0.20295214  0.81189109    -0.06000
C2317       C  0.96322645  0.22457049  0.79567569    -0.00100
C2318       C  0.95324797  0.24137359  0.81412182    -0.08500
C2319       C  0.94428452  0.26297310  0.79603460     0.61800
H2320       H  0.94745717  0.25339287  0.86512648     0.12500
H2321       H  0.47389341  0.18915403  0.79753857     0.12500
C2322       C  0.47788548  0.18075503  0.86710899     0.62100
F2323       F  0.93582016  0.27746890  0.81891828    -0.23100
F2324       F  0.91976090  0.24532258  0.77084106    -0.20400
F2325       F  0.96847101  0.28649016  0.78075676    -0.20100
F2326       F  0.45481872  0.15934593  0.88538553    -0.20200
F2327       F  0.50422412  0.19889905  0.88990554    -0.20500
F2328       F  0.48330900  0.16358299  0.84401152    -0.23200
C2329       C  0.92545466  0.37963706  0.02383516    -0.06000
C2330       C  0.92661400  0.40038210  0.99810734    -0.00100
C2331       C  0.89921648  0.39095331  0.97579597    -0.08600
C2332       C  0.87184475  0.36233137  0.98120766    -0.06000
C2333       C  0.87050287  0.34181100  0.00745815    -0.00100
C2334       C  0.89843167  0.35037601  0.02831221    -0.08500
C2335       C  0.90032925  0.32862039  0.05488375     0.61800
H2336       H  0.94640057  0.38623539  0.04023978     0.12500
H2337       H  0.85093300  0.35600927  0.96495352     0.12500
C2338       C  0.89856804  0.41127628  0.94663895     0.62100
F2339       F  0.93010606  0.33699889  0.06493121    -0.23100
F2340       F  0.88452162  0.29765119  0.04079973    -0.20400
F2341       F  0.88824970  0.33031323  0.08429766    -0.20100
F2342       F  0.91395211  0.40979470  0.92048436    -0.20200
F2343       F  0.91220576  0.44245389  0.95932027    -0.20500
F2344       F  0.86915849  0.40113608  0.93211211    -0.23200
C2345       C  0.61801422  0.11105716  0.97473192    -0.06000
C2346       C  0.61351785  0.09791844  0.00725965    -0.00100
C2347       C  0.63746140  0.11355932  0.03527443    -0.08600
C2348       C  0.66490425  0.14174923  0.02946641    -0.06000
C2349       C  0.66918829  0.15550420  0.99696625    -0.00100
C2350       C  0.64465499  0.13988272  0.96922612    -0.08500
C2351       C  0.64545679  0.15385845  0.93400365     0.61800
H2352       H  0.59965708  0.09902074  0.95359518     0.12500
H2353       H  0.68348594  0.15301880  0.05035685     0.12500
C2354       C  0.63447279  0.10006825  0.07096763     0.62100
F2355       F  0.61694624  0.13915530  0.91467752    -0.23100
F2356       F  0.66438381  0.15014051  0.91475204    -0.20400
F2357       F  0.65555139  0.18569189  0.93879483    -0.20100
F2358       F  0.62286586  0.06778447  0.06763413    -0.20200
F2359       F  0.61535317  0.10546898  0.08785510    -0.20500
F2360       F  0.66224516  0.11388698  0.09162315    -0.23200
C2361       C  0.98697491  0.36458505  0.00645067    -0.06000
C2362       C  0.51966325  0.39601755  0.02101790    -0.00100
C2363       C  0.54690719  0.39634078  0.02090924    -0.08600
C2364       C  0.54517255  0.36721509  0.01826224    -0.06000
C2365       C  0.51703216  0.33843582  0.01508790    -0.00100
C2366       C  0.98378607  0.33486548  0.00420885    -0.08500
C2367       C  0.95379744  0.30606336  0.98875123     0.61800
H2368       H  0.96816236  0.36699371  0.99582214     0.12500
H2369       H  0.56551030  0.36672218  0.01599400     0.12500
C2370       C  0.57726446  0.42735769  0.02195611     0.62100
F2371       F  0.93010099  0.31125401  0.98862643    -0.23100
F2372       F  0.94724425  0.28021442  0.00821495    -0.20400
F2373       F  0.95551373  0.29913101  0.95482807    -0.20100
F2374       F  0.58228057  0.44550133  0.05186155    -0.20200
F2375       F  0.57718019  0.44400158  0.99319009    -0.20500
F2376       F  0.60113624  0.42244288  0.02208907    -0.23200
C2377       C  0.97468465  0.08548199  0.98595383    -0.06000
C2378       C  0.50880586  0.09765401  0.98462193    -0.00100
C2379       C  0.53200825  0.12982481  0.98327762    -0.08600
C2380       C  0.52457226  0.15315628  0.98571608    -0.06000
C2381       C  0.49486038  0.14470853  0.98956047    -0.00100
C2382       C  0.96843678  0.10941439  0.98996889    -0.08500
C2383       C  0.93663812  0.10066448  0.99525670     0.61800
H2384       H  0.95724320  0.06091905  0.98835734     0.12500
H2385       H  0.54219487  0.17809064  0.98711232     0.12500
C2386       C  0.56452784  0.13928700  0.98103739     0.62100
F2387       F  0.91584230  0.06841504  0.98918793    -0.23100
F2388       F  0.92728382  0.11635705  0.97251480    -0.20400
F2389       F  0.93668803  0.10917731  0.02918507    -0.20100
F2390       F  0.56518579  0.12269203  0.95289312    -0.20200
F2391       F  0.57616100  0.13234737  0.01126244    -0.20500
F2392       F  0.58299225  0.17138348  0.97657433    -0.23200
C2393       C  0.52850716  0.03781589  0.85256761    -0.06000
C2394       C  0.51248320  0.50168226  0.86674944    -0.00100
C2395       C  0.03063630  0.49806919  0.84812673    -0.08600
C2396       C  0.02892181  0.50221134  0.81203848    -0.06000
C2397       C  0.51305874  0.50912644  0.79413346    -0.00100
C2398       C  0.52781425  0.04215802  0.81640367    -0.08500
C2399       C  0.53573559  0.07412765  0.80316370     0.61800
H2400       H  0.53498774  0.05748424  0.87082359     0.12500
H2401       H  0.03484242  0.48982195  0.79462951     0.12500
C2402       C  0.04353493  0.47861278  0.86315230     0.62100
F2403       F  0.54646987  0.09712681  0.83015144    -0.23100
F2404       F  0.51011574  0.07162020  0.78482315    -0.20400
F2405       F  0.55805361  0.08396781  0.78142256    -0.20100
F2406       F  0.02124467  0.45179300  0.87689156    -0.20200
F2407       F  0.06720987  0.49669039  0.88921759    -0.20500
F2408       F  0.05465426  0.46900699  0.83811655    -0.23200
C2409       C  0.72481544  0.21942623  0.52294480    -0.06000
C2410       C  0.74246088  0.25035686  0.53888543    -0.00100
C2411       C  0.75914990  0.27599503  0.51789344    -0.08600
C2412       C  0.75848394  0.26945189  0.48208431    -0.06000
C2413       C  0.74178121  0.23832398  0.46668417    -0.00100
C2414       C  0.72407426  0.21293432  0.48728659    -0.08500
C2415       C  0.70370071  0.17915322  0.47150664     0.61800
H2416       H  0.71160857  0.20004278  0.53889347     0.12500
H2417       H  0.77164371  0.28864892  0.46590347     0.12500
C2418       C  0.77685966  0.31012361  0.53284993     0.62100
F2419       F  0.68440604  0.15920067  0.49437207    -0.23100
F2420       F  0.72125372  0.16737173  0.46299746    -0.20400
F2421       F  0.68591419  0.17859768  0.44181623    -0.20100
F2422       F  0.80097161  0.31508237  0.55674727    -0.20200
F2423       F  0.75802231  0.31645902  0.54910240    -0.20500
F2424       F  0.78845602  0.33143878  0.50723192    -0.23200
C2425       C  0.74619169  0.20770481  0.18135356    -0.06000
C2426       C  0.77159291  0.22724435  0.20556419    -0.00100
C2427       C  0.80075915  0.24331669  0.19442436    -0.08600
C2428       C  0.80310111  0.24189782  0.15843596    -0.06000
C2429       C  0.77728812  0.22421199  0.13335082    -0.00100
C2430       C  0.74842993  0.20523409  0.14559506    -0.08500
C2431       C  0.71969967  0.18310162  0.12141663     0.61800
H2432       H  0.72418569  0.19502254  0.19073151     0.12500
H2433       H  0.82523567  0.25556639  0.14954354     0.12500
C2434       C  0.82906841  0.26250036  0.22042512     0.62100
F2435       F  0.69501305  0.16552313  0.13948124    -0.23100
F2436       F  0.72391523  0.16198752  0.10333083    -0.20400
F2437       F  0.71274343  0.20047767  0.09842836    -0.20100
F2438       F  0.83045629  0.24306621  0.24537570    -0.20200
F2439       F  0.82816752  0.28678733  0.23652115    -0.20500
F2440       F  0.85536219  0.27570057  0.20461525    -0.23200
C2441       C  0.72970358  0.46666018  0.48602718    -0.06000
C2442       C  0.74404160  0.49277298  0.46568220    -0.00100
C2443       C  0.72094062  0.99879625  0.47472953    -0.08600
C2444       C  0.72186265  0.00552715  0.50996905    -0.06000
C2445       C  0.73694354  0.50154542  0.53442889    -0.00100
C2446       C  0.72548131  0.47048837  0.52034070    -0.08500
C2447       C  0.70909302  0.44168090  0.54158051     0.61800
H2448       H  0.72112423  0.44314025  0.47448311     0.12500
H2449       H  0.70695604  0.01279404  0.51797163     0.12500
C2450       C  0.69817442  0.00110581  0.44874656     0.62100
F2451       F  0.70139988  0.41391070  0.52345665    -0.23100
F2452       F  0.68257315  0.43866597  0.54991293    -0.20400
F2453       F  0.72757522  0.44509323  0.57193272    -0.20100
F2454       F  0.68116193  0.97337468  0.42772370    -0.20200
F2455       F  0.71351323  0.02674193  0.42883192    -0.20500
F2456       F  0.67806361  0.00548040  0.46494727    -0.23200
C2457       C  0.75404692  0.33968835  0.36273673    -0.06000
C2458       C  0.75897180  0.33188452  0.33009862    -0.00100
C2459       C  0.76423702  0.35384880  0.30365638    -0.08600
C2460       C  0.76198363  0.38072747  0.31023979    -0.06000
C2461       C  0.75533820  0.38745069  0.34232925    -0.00100
C2462       C  0.75153161  0.36632970  0.36925450    -0.08500
C2463       C  0.74392601  0.37091553  0.40475518     0.61800
H2464       H  0.75190215  0.32441530  0.38360383     0.12500
H2465       H  0.76604549  0.39729114  0.29014749     0.12500
C2466       C  0.77324756  0.34999424  0.26879256     0.62100
F2467       F  0.73522552  0.34455477  0.42410841    -0.23100
F2468       F  0.72006360  0.37600129  0.40066608    -0.20400
F2469       F  0.76908039  0.39649169  0.42358049    -0.20100
F2470       F  0.74850049  0.32523150  0.24849355    -0.20200
F2471       F  0.79660241  0.34413596  0.27405615    -0.20500
F2472       F  0.78347184  0.37706546  0.25039149    -0.23200
C2473       C  0.76905944  0.12666323  0.36187359    -0.06000
C2474       C  0.75154247  0.13593181  0.34052641    -0.00100
C2475       C  0.73017667  0.11409898  0.31310150    -0.08600
C2476       C  0.72717393  0.08412888  0.30844116    -0.06000
C2477       C  0.74479878  0.07489169  0.32975376    -0.00100
C2478       C  0.76637779  0.09692262  0.35696053    -0.08500
C2479       C  0.78735021  0.08985238  0.38029551     0.61800
H2480       H  0.78562942  0.14343866  0.38244525     0.12500
H2481       H  0.71053300  0.06734409  0.28792915     0.12500
C2482       C  0.71011139  0.12189204  0.28907817     0.62100
F2483       F  0.81002068  0.11645104  0.40049831    -0.23100
F2484       F  0.80128652  0.07949561  0.36017333    -0.20400
F2485       F  0.77090160  0.06683035  0.40257066    -0.20100
F2486       F  0.72757571  0.14522712  0.26760587    -0.20200
F2487       F  0.69584571  0.13232499  0.30853554    -0.20500
F2488       F  0.68775125  0.09571316  0.26806676    -0.23200
C2489       C  0.72315414  0.46302677  0.14402949    -0.06000
C2490       C  0.75811572  0.97995775  0.13415612    -0.00100
C2491       C  0.78372239  0.99874175  0.15919177    -0.08600
C2492       C  0.77998923  0.99520601  0.19447905    -0.06000
C2493       C  0.75203060  0.97267595  0.20489020    -0.00100
C2494       C  0.71984223  0.45886767  0.17946550    -0.08500
C2495       C  0.68829759  0.44146130  0.19090038     0.61800
H2496       H  0.70332367  0.45493452  0.12487803     0.12500
H2497       H  0.79867634  0.01095421  0.21407721     0.12500
C2498       C  0.81474408  0.02333464  0.14978851     0.62100
F2499       F  0.66570439  0.42776564  0.16273647    -0.23100
F2500       F  0.68389372  0.46227954  0.20922775    -0.20400
F2501       F  0.68523736  0.41758410  0.21198004    -0.20100
F2502       F  0.81839437  0.05299828  0.15220156    -0.20200
F2503       F  0.81841024  0.01698137  0.11656726    -0.20500
F2504       F  0.83728520  0.02342233  0.17255533    -0.23200
C2505       C  0.51998381  0.25288569  0.48806403    -0.06000
C2506       C  0.00650731  0.26730308  0.46818899    -0.00100
C2507       C  0.97980867  0.26159302  0.48114340    -0.08600
C2508       C  0.98060705  0.26635818  0.51742046    -0.06000
C2509       C  0.00730512  0.27732800  0.54130217    -0.00100
C2510       C  0.51886957  0.25386575  0.52421201    -0.08500
C2511       C  0.53007423  0.23623293  0.54710343     0.61800
H2512       H  0.53080118  0.24149857  0.47799289     0.12500
H2513       H  0.95986938  0.26081011  0.52744355     0.12500
C2514       C  0.95036857  0.24944965  0.45695421     0.62100
F2515       F  0.53960379  0.22019298  0.52808514    -0.23100
F2516       F  0.50660431  0.21405544  0.56436256    -0.20400
F2517       F  0.55442607  0.25740484  0.57084443    -0.20100
F2518       F  0.94192418  0.22087145  0.44021282    -0.20200
F2519       F  0.95435452  0.27122163  0.43237480    -0.20500
F2520       F  0.92680923  0.24470572  0.47479202    -0.23200
C2521       C  0.85882873  0.21346355  0.34451931    -0.06000
C2522       C  0.85777352  0.24109197  0.34359704    -0.00100
C2523       C  0.88279928  0.27042770  0.33651328    -0.08600
C2524       C  0.90885285  0.27112261  0.32986069    -0.06000
C2525       C  0.90986616  0.24348719  0.33048678    -0.00100
C2526       C  0.88499698  0.21421550  0.33802565    -0.08500
C2527       C  0.88623502  0.18431508  0.33886491     0.61800
H2528       H  0.83889256  0.19135657  0.34993501     0.12500
H2529       H  0.92875807  0.29324181  0.32442173     0.12500
C2530       C  0.88199872  0.30061015  0.33676912     0.62100
F2531       F  0.85899026  0.15818509  0.34585620    -0.23100
F2532       F  0.90891317  0.18829442  0.36447076    -0.20400
F2533       F  0.89239106  0.17819339  0.30694096    -0.20100
F2534       F  0.87483945  0.30552671  0.36859659    -0.20200
F2535       F  0.86029233  0.29799714  0.31062017    -0.20500
F2536       F  0.90975907  0.32692595  0.33156465    -0.23200
C2537       C  0.63340657  0.25813730  0.36414086    -0.06000
C2538       C  0.61268427  0.25261646  0.33463953    -0.00100
C2539       C  0.61396236  0.23888820  0.30319097    -0.08600
C2540       C  0.63663942  0.23185315  0.30273886    -0.06000
C2541       C  0.65745375  0.23761028  0.33225092    -0.00100
C2542       C  0.65533768  0.25008646  0.36401120    -0.08500
C2543       C  0.67599664  0.25549129  0.39765559     0.61800
H2544       H  0.63181911  0.26837051  0.38787744     0.12500
H2545       H  0.63857435  0.22198011  0.27894953     0.12500
C2546       C  0.59156000  0.23089613  0.27038191     0.62100
F2547       F  0.66966772  0.26826667  0.42485817    -0.23100
F2548       F  0.70582731  0.27636677  0.39284935    -0.20400
F2549       F  0.67233267  0.22698126  0.40763847    -0.20100
F2550       F  0.59394180  0.25830439  0.25826328    -0.20200
F2551       F  0.56225710  0.20999234  0.27749072    -0.20500
F2552       F  0.59700998  0.21667668  0.24375195    -0.23200
C2553       C  0.04030237  0.28153914  0.14624258    -0.06000
C2554       C  0.54054563  0.25534719  0.13110598    -0.00100
C2555       C  0.53983898  0.23347547  0.15552610    -0.08600
C2556       C  0.53726003  0.23818707  0.19061157    -0.06000
C2557       C  0.53650813  0.26447718  0.20270771    -0.00100
C2558       C  0.03896926  0.28678382  0.18174205    -0.08500
C2559       C  0.04267809  0.31798501  0.19344658     0.61800
H2560       H  0.04198447  0.29886167  0.12800620     0.12500
H2561       H  0.53453646  0.22033741  0.20860447     0.12500
C2562       C  0.54157210  0.20500643  0.14512992     0.62100
F2563       F  0.05424324  0.34027167  0.16872012    -0.23100
F2564       F  0.06272303  0.33056266  0.22385230    -0.20400
F2565       F  0.01476475  0.31312140  0.19889234    -0.20100
F2566       F  0.56368082  0.21381278  0.12326515    -0.20200
F2567       F  0.51372497  0.18135275  0.12845693    -0.20500
F2568       F  0.54917431  0.19267279  0.17390635    -0.23200
C2569       C  0.47599283  0.03414480  0.50804978    -0.06000
C2570       C  0.96408223  0.00236387  0.53184266    -0.00100
C2571       C  0.97828410  0.48315377  0.52380311    -0.08600
C2572       C  0.98515808  0.48323363  0.48960600    -0.06000
C2573       C  0.98166926  0.50192762  0.46419891    -0.00100
C2574       C  0.48262680  0.03276887  0.47388787    -0.08500
C2575       C  0.49619935  0.06288616  0.45421921     0.61800
H2576       H  0.48073375  0.05637822  0.51967559     0.12500
H2577       H  0.99428208  0.46889650  0.48313391     0.12500
C2578       C  0.98464112  0.46312009  0.54891331     0.62100
F2579       F  0.50030955  0.08851498  0.47371588    -0.23100
F2580       F  0.47712659  0.05861405  0.42411121    -0.20400
F2581       F  0.52433304  0.07045007  0.44600942    -0.20100
F2582       F  0.97161558  0.45927065  0.57917175    -0.20200
F2583       F  0.01574288  0.47723995  0.55724590    -0.20500
F2584       F  0.97288917  0.43319138  0.53334195    -0.23200
C2585       C  0.53176378  0.40463886  0.35958089    -0.06000
C2586       C  0.50965051  0.40966914  0.34165505    -0.00100
C2587       C  0.98895306  0.38624945  0.31464006    -0.08600
C2588       C  0.98873099  0.35768387  0.30990704    -0.06000
C2589       C  0.51017261  0.35277888  0.32837173    -0.00100
C2590       C  0.53276262  0.37701454  0.35312256    -0.08500
C2591       C  0.55866891  0.37457966  0.37167993     0.61800
H2592       H  0.54894979  0.42315136  0.37837315     0.12500
H2593       H  0.97224497  0.33990871  0.29005673     0.12500
C2594       C  0.96646364  0.39138380  0.29165355     0.62100
F2595       F  0.58115180  0.40301922  0.38909944    -0.23100
F2596       F  0.57184138  0.36655959  0.34774349    -0.20400
F2597       F  0.54784692  0.35174509  0.39580966    -0.20100
F2598       F  0.98178560  0.41576851  0.27022299    -0.20200
F2599       F  0.95070107  0.39899376  0.31215309    -0.20500
F2600       F  0.94546502  0.36453601  0.27064498    -0.23200
C2601       C  0.53470828  0.15474644  0.34990175    -0.06000
C2602       C  0.51175782  0.15996363  0.33499003    -0.00100
C2603       C  0.98661698  0.13555152  0.31672435    -0.08600
C2604       C  0.98405664  0.10572725  0.31203290    -0.06000
C2605       C  0.50641346  0.09945847  0.32635413    -0.00100
C2606       C  0.53249485  0.12507642  0.34611720    -0.08500
C2607       C  0.55815650  0.12133159  0.36272817     0.61800
H2608       H  0.55470595  0.17441677  0.36474263     0.12500
H2609       H  0.96499111  0.08721615  0.29489807     0.12500
C2610       C  0.96234611  0.14084866  0.29875438     0.62100
F2611       F  0.58322997  0.15003118  0.37642782    -0.23100
F2612       F  0.56725379  0.10891273  0.33820180    -0.20400
F2613       F  0.54833446  0.10112223  0.38945964    -0.20100
F2614       F  0.97448811  0.16311430  0.27421903    -0.20200
F2615       F  0.95164071  0.15166750  0.32306249    -0.20500
F2616       F  0.93787142  0.11318425  0.28206540    -0.23200
C2617       C  0.90347394  0.02093508  0.33001046    -0.06000
C2618       C  0.90166418  0.99303546  0.31918178    -0.00100
C2619       C  0.87738892  0.46826741  0.31233542    -0.08600
C2620       C  0.85032580  0.46728022  0.31486827    -0.06000
C2621       C  0.85084329  0.49364526  0.32866825    -0.00100
C2622       C  0.87730853  0.02104641  0.33431580    -0.08500
C2623       C  0.87928964  0.05195879  0.34303756     0.61800
H2624       H  0.92559641  0.04268252  0.33467265     0.12500
H2625       H  0.82858495  0.44547200  0.30789187     0.12500
C2626       C  0.87669613  0.43871336  0.30051483     0.62100
F2627       F  0.90911739  0.07731155  0.34806100    -0.23100
F2628       F  0.86651496  0.05002201  0.37312739    -0.20400
F2629       F  0.86379854  0.05800999  0.31579215    -0.20100
F2630       F  0.89094825  0.43049632  0.32705619    -0.20200
F2631       F  0.89161748  0.44432179  0.27142994    -0.20500
F2632       F  0.84724774  0.41322939  0.29207144    -0.23200
C2633       C  0.65010466  0.99844694  0.36597036    -0.06000
C2634       C  0.64394572  0.97598803  0.33931440    -0.00100
C2635       C  0.61657377  0.46227424  0.32343998    -0.08600
C2636       C  0.59818161  0.47448739  0.32742890    -0.06000
C2637       C  0.60546582  0.49708510  0.35438823    -0.00100
C2638       C  0.62916388  0.00706709  0.37149353    -0.08500
C2639       C  0.63675610  0.03153822  0.40058837     0.61800
H2640       H  0.67218391  0.01046404  0.38132312     0.12500
H2641       H  0.57730307  0.46561122  0.30978909     0.12500
C2642       C  0.60624964  0.43668060  0.29468184     0.62100
F2643       F  0.66632386  0.04490659  0.41665477    -0.23100
F2644       F  0.61750029  0.01740125  0.42568492    -0.20400
F2645       F  0.63352475  0.05569300  0.38729145    -0.20100
F2646       F  0.61827960  0.41787854  0.30234133    -0.20200
F2647       F  0.61518022  0.45070759  0.26370886    -0.20500
F2648       F  0.57487924  0.41696353  0.29046441    -0.23200
C2649       C  0.01222733  0.97581237  0.19037628    -0.06000
C2650       C  0.52884201  0.00379777  0.20696012    -0.00100
C2651       C  0.55591792  0.52078584  0.19340579    -0.08600
C2652       C  0.55350751  0.51694000  0.15684718    -0.06000
C2653       C  0.52522114  0.49810954  0.13604466    -0.00100
C2654       C  0.01267603  0.97190642  0.15427267    -0.08500
C2655       C  0.99395062  0.93874056  0.13647759     0.61800
H2656       H  0.99801663  0.95547692  0.20466310     0.12500
H2657       H  0.57380856  0.52951352  0.14403969     0.12500
C2658       C  0.58663937  0.54224699  0.21465174     0.62100
F2659       F  0.99656559  0.41919991  0.16556059    -0.23100
F2660       F  0.02664921  0.43976751  0.12359435    -0.20400
F2661       F  0.97040589  0.93619960  0.11335722    -0.20100
F2662       F  0.59250831  0.52492231  0.23887482    -0.20200
F2663       F  0.55869809  0.07589051  0.21953389    -0.20500
F2664       F  0.59603191  0.08150706  0.19055564    -0.23200
O2665       O  0.49702474  0.98158768  0.42135492    -0.81100
O2666       O  0.52626984  0.99015538  0.26659139    -0.65800
O2667       O  0.52912415  0.51467023  0.36514224    -1.12400
C2668       C  0.93415839  0.50051973  0.32033705     1.05800
O2669       O  0.01756478  0.53065618  0.25498679    -0.79000
O2670       O  0.99559760  0.55818676  0.29490180    -0.66600
Ni2671     Ni  0.53199876  0.98892389  0.39920614     1.34900
C2672       C  0.00470205  0.57034910  0.32601660     0.84500
O2673       O  0.57246910  0.51315045  0.33093803    -0.79500
O2674       O  0.56750407  0.99466321  0.38161686    -0.89800
C2675       C  0.52877586  0.51147074  0.24691376     0.84100
O2676       O  0.51030451  0.94650123  0.37765474    -0.68000
O2677       O  0.94217561  0.50309777  0.28994570    -0.87300
C2678       C  0.50781108  0.93697791  0.34620413     0.84900
C2679       C  0.57774814  0.99953775  0.35227091     1.06500
H2680       H  0.97200968  0.97038012  0.30554294     0.38300
O2681       O  0.98636053  0.99299088  0.30893138    -1.10000
O2682       O  0.00712540  0.55480599  0.35138596    -0.66600
Ni2683     Ni  0.99014241  0.50946103  0.35753790     1.26300
O2684       O  0.51080727  0.95439499  0.32059673    -0.66800
O2685       O  0.94671071  0.99926742  0.34503096    -0.79100
C2686       C  0.98699788  0.99900528  0.42727793     0.84300
O2687       O  0.99124243  0.51923813  0.40568138    -0.66300
Ni2688     Ni  0.98012018  0.51659921  0.27374053     1.27400
Ni2689     Ni  0.52679146  0.99947702  0.31501618     1.26100
H2690       H  0.54381353  0.53695258  0.37088801     0.38800
O2691       O  0.51404560  0.73965578  0.41607437    -0.81100
O2692       O  0.53053433  0.74538457  0.25768044    -0.65800
O2693       O  0.53722593  0.76734741  0.35460120    -1.11200
C2694       C  0.93908472  0.74523310  0.32399229     1.05800
O2695       O  0.51788156  0.78055089  0.24571644    -0.79000
O2696       O  0.99324260  0.80380701  0.29433324    -0.66600
Ni2697     Ni  0.54590393  0.74553738  0.39009398     1.34900
C2698       C  0.50549372  0.81897288  0.31807997     0.84500
O2699       O  0.57419687  0.76227150  0.31180583    -0.79500
O2700       O  0.57819513  0.74949679  0.36726813    -0.89800
C2701       C  0.52693490  0.76279599  0.23575851     0.84100
O2702       O  0.52086191  0.70299435  0.37016946    -0.68000
O2703       O  0.94487620  0.74501292  0.29287200    -0.87300
C2704       C  0.51650990  0.69249449  0.33883005     0.84900
C2705       C  0.58697590  0.75526943  0.33713774     1.06500
H2706       H  0.98402184  0.72500263  0.30956744     0.38300
O2707       O  0.99688173  0.74787164  0.31166256    -1.10000
O2708       O  0.51395240  0.80646159  0.34215752    -0.66600
Ni2709     Ni  0.99855124  0.76138841  0.35827211     1.26300
O2710       O  0.51956552  0.70975476  0.31301035    -0.66800
O2711       O  0.95770881  0.75161292  0.35154165    -0.79100
C2712       C  0.01004419  0.76212134  0.43187040     0.84300
O2713       O  0.00193851  0.77366341  0.40653445    -0.66300
Ni2714     Ni  0.98241138  0.76327646  0.27412560     1.27400
Ni2715     Ni  0.53428196  0.75472246  0.30697940     1.26100
H2716       H  0.55259465  0.78966541  0.35843939     0.38800
O2717       O  0.75137582  0.96444793  0.42078538    -0.81100
O2718       O  0.75299404  0.95938660  0.26345056    -0.65800
O2719       O  0.76934418  0.49153332  0.35741755    -1.12400
C2720       C  0.66987584  0.47320094  0.33592841     1.05800
O2721       O  0.73753260  0.49392386  0.25086388    -0.79000
O2722       O  0.72299165  0.52577603  0.29425624    -0.66600
Ni2723     Ni  0.78440478  0.97682425  0.39365645     1.34900
C2724       C  0.73726931  0.54109965  0.32315540     0.84500
O2725       O  0.80247818  0.48476824  0.31111727    -0.79500
O2726       O  0.81853968  0.98915023  0.36934416    -0.89800
C2727       C  0.74499366  0.47483236  0.24108953     0.84100
O2728       O  0.76822221  0.93369587  0.37707275    -0.68000
O2729       O  0.67190630  0.47162034  0.30353081    -0.87300
C2730       C  0.75598192  0.91836145  0.34771537     0.84900
C2731       C  0.82155238  0.98866253  0.33711706     1.06500
H2732       H  0.70681949  0.94415923  0.30991054     0.38300
O2733       O  0.72139147  0.96674801  0.31122000    -1.10000
O2734       O  0.74395441  0.52823252  0.34834165    -0.66600
Ni2735     Ni  0.73005459  0.48450717  0.35936025     1.26300
O2736       O  0.74848356  0.93040007  0.32202427    -0.66800
O2737       O  0.68773853  0.97425905  0.35636584    -0.79100
C2738       C  0.74262041  0.98312843  0.42835062     0.84300
O2739       O  0.73976821  0.50041243  0.40595881    -0.66300
Ni2740     Ni  0.70513229  0.48216789  0.27822037     1.27400
Ni2741     Ni  0.76105875  0.97394665  0.31088120     1.26100
H2742       H  0.78359086  0.51413322  0.35754247     0.38800
O2743       O  0.75460759  0.71273109  0.41867050    -0.81100
O2744       O  0.76699635  0.71595811  0.26166087    -0.65800
O2745       O  0.77594500  0.74360648  0.35691532    -1.12400
C2746       C  0.68238969  0.73313234  0.32621679     1.05800
O2747       O  0.75288513  0.74904845  0.24241827    -0.79000
O2748       O  0.75029993  0.78709513  0.29191255    -0.66600
Ni2749     Ni  0.78908490  0.72583357  0.39363679     1.34900
C2750       C  0.75143111  0.79736245  0.32238940     0.84500
O2751       O  0.81126652  0.73521930  0.31421695    -0.79500
O2752       O  0.82465705  0.73806497  0.37228245    -0.89800
C2753       C  0.76230187  0.73050964  0.23707610     0.84100
O2754       O  0.77152833  0.68322670  0.37412743    -0.68000
O2755       O  0.69192714  0.74127265  0.29665821    -0.87300
C2756       C  0.75945910  0.66965319  0.34387425     0.84900
C2757       C  0.82966669  0.73868165  0.34072010     1.06500
H2758       H  0.71736674  0.70059744  0.30331467     0.38300
O2759       O  0.73264523  0.72294410  0.30710996    -1.10000
O2760       O  0.74811835  0.78005642  0.34831862    -0.66600
Ni2761     Ni  0.73591262  0.73558839  0.35502328     1.26300
O2762       O  0.75539117  0.68409380  0.31843337    -0.66800
O2763       O  0.69534377  0.72567460  0.35079596    -0.79100
C2764       C  0.74592150  0.73113253  0.42727638     0.84300
O2765       O  0.74055384  0.74651412  0.40418914    -0.66300
Ni2766     Ni  0.72323541  0.74462225  0.27195053     1.27400
Ni2767     Ni  0.77184565  0.72873163  0.30985274     1.26100
H2768       H  0.79010602  0.76629471  0.35885125     0.38800
O2769       O  0.54310823  0.52667169  0.08571817    -0.81100
O2770       O  0.52770065  0.52216581  0.92652237    -0.65800
O2771       O  0.50906595  0.51326440  0.02026964    -1.12400
C2772       C  0.51134594  0.91910173  0.00436878     1.05800
O2773       O  0.99313892  0.97098525  0.91269965    -0.79000
O2774       O  0.96117154  0.93194977  0.96225637    -0.66600
Ni2775     Ni  0.53018203  0.54840950  0.05365077     1.34900
C2776       C  0.95438894  0.92694352  0.99312925     0.84500
O2777       O  0.51343826  0.55438842  0.96819184    -0.79500
O2778       O  0.51826699  0.57195548  0.02382048    -0.89800
C2779       C  0.51067749  0.49859740  0.90492618     0.84100
O2780       O  0.56961746  0.57137100  0.03840254    -0.68000
O2781       O  0.50203746  0.92030552  0.97274564    -0.87300
C2782       C  0.57959941  0.57097243  0.01007943     0.84900
C2783       C  0.51348393  0.57299909  0.99086228     1.06500
H2784       H  0.54545093  0.98924759  0.97659100     0.38300
O2785       O  0.52484613  0.98385644  0.97783460    -1.10000
O2786       O  0.97380708  0.94323230  0.01952641    -0.66600
Ni2787     Ni  0.51706020  0.97738156  0.02521232     1.26300
O2788       O  0.56301286  0.55010327  0.98516535    -0.66800
O2789       O  0.52200306  0.94183338  0.02762401    -0.79100
C2790       C  0.53013191  0.99895706  0.09522868     0.84300
O2791       O  0.51221418  0.97517121  0.07409429    -0.66300
Ni2792     Ni  0.99999931  0.94649628  0.94727277     1.27400
Ni2793     Ni  0.51942938  0.51962186  0.97391268     1.26100
H2794       H  0.99102196  0.50311739  0.02238897     0.38800
O2795       O  0.47904811  0.75470621  0.91196858    -0.81100
O2796       O  0.53632886  0.76848645  0.06670554    -0.65800
O2797       O  0.51421105  0.74871470  0.96771637    -1.12400
C2798       C  0.92428164  0.67171380  0.01263080     1.05800
O2799       O  0.51707197  0.71815279  0.07349828    -0.79000
O2800       O  0.98678420  0.67207317  0.03641375    -0.66600
Ni2801     Ni  0.51929664  0.78053367  0.93670212     1.34900
C2802       C  0.48634760  0.66757453  0.99463894     0.84500
O2803       O  0.56788480  0.79280688  0.01075610    -0.79500
O2804       O  0.56022009  0.80892426  0.95826217    -0.89800
C2805       C  0.52993409  0.74609909  0.08699747     0.84100
O2806       O  0.50432230  0.79986341  0.96395220    -0.68000
O2807       O  0.93931675  0.67853080  0.04303053    -0.87300
C2808       C  0.50726053  0.80501336  0.99660922     0.84900
C2809       C  0.57722922  0.81198075  0.98622164     1.06500
H2810       H  0.98100762  0.74271555  0.03387583     0.38300
O2811       O  0.99082753  0.73156710  0.02833181    -1.10000
O2812       O  0.48572077  0.68574092  0.97198844    -0.66600
Ni2813     Ni  0.97823665  0.71808379  0.97996149     1.26300
O2814       O  0.51674944  0.79224926  0.01863381    -0.66800
O2815       O  0.93652078  0.68573394  0.98578306    -0.79100
C2816       C  0.97285862  0.72932307  0.90954631     0.84300
O2817       O  0.96833569  0.70779008  0.93032073    -0.66300
Ni2818     Ni  0.98124302  0.70090812  0.06203251     1.27400
Ni2819     Ni  0.52649705  0.76018076  0.01664823     1.26100
H2820       H  0.52537641  0.73969970  0.96013231     0.38800
O2821       O  0.76069356  0.51607780  0.08991266    -0.81100
O2822       O  0.75511638  0.51457842  0.92593907    -0.65800
O2823       O  0.73613067  0.49795114  0.01884213    -1.12400
C2824       C  0.78116028  0.93668496  0.01313283     1.05800
O2825       O  0.73272389  0.96000409  0.91268274    -0.79000
O2826       O  0.71391779  0.91799877  0.96208595    -0.66600
Ni2827     Ni  0.74728942  0.53242732  0.05107511     1.34900
C2828       C  0.70298210  0.91481603  0.99058564     0.84500
O2829       O  0.72344501  0.52704252  0.96411583    -0.79500
O2830       O  0.73419573  0.55208095  0.01664764    -0.89800
C2831       C  0.74600191  0.49146766  0.90427095     0.84100
O2832       O  0.78819903  0.55799415  0.04104745    -0.68000
O2833       O  0.77262393  0.93303743  0.98047015    -0.87300
C2834       C  0.79907452  0.56413534  0.01222709     0.84900
C2835       C  0.72445369  0.54761707  0.98423663     1.06500
H2836       H  0.78508285  0.99720719  0.98132079     0.38300
O2837       O  0.76348918  0.98238708  0.98090196    -1.10000
O2838       O  0.71716636  0.93405847  0.01709430    -0.66600
Ni2839     Ni  0.75546269  0.97362809  0.02779976     1.26300
O2840       O  0.78351036  0.54817527  0.98389313    -0.66800
O2841       O  0.77682665  0.95273898  0.03435526    -0.79100
C2842       C  0.75701163  0.98771067  0.09769788     0.84300
O2843       O  0.74732919  0.96592748  0.07423344    -0.66300
Ni2844     Ni  0.75277766  0.94790859  0.94847691     1.27400
Ni2845     Ni  0.74585331  0.50737224  0.97238460     1.26100
H2846       H  0.71442651  0.48342698  0.01780390     0.38800
O2847       O  0.80209531  0.75014419  0.08312688    -0.81100
O2848       O  0.77149861  0.78890738  0.93980719    -0.65800
O2849       O  0.76777400  0.76082217  0.03284391    -1.12400
C2850       C  0.75180424  0.66910534  0.97183757     1.05800
O2851       O  0.72930220  0.74346164  0.92603748    -0.79000
O2852       O  0.70509211  0.68657558  0.95643431    -0.66600
Ni2853     Ni  0.79876304  0.78552311  0.07027451     1.34900
C2854       C  0.69819630  0.68268440  0.98723308     0.84500
O2855       O  0.77400811  0.81424617  0.00361308    -0.79500
O2856       O  0.79622708  0.82163778  0.05954389    -0.89800
C2857       C  0.74928835  0.77029177  0.91702129     0.84100
O2858       O  0.83400093  0.80280803  0.04630301    -0.68000
O2859       O  0.75209782  0.68283148  0.94385495    -0.87300
C2860       C  0.83788288  0.81251395  0.01576321     0.84900
C2861       C  0.78632407  0.83025119  0.03284536     1.06500
H2862       H  0.78882925  0.74325577  0.97051008     0.38300
O2863       O  0.76888312  0.73815897  0.97492835    -1.10000
O2864       O  0.71780190  0.69984584  0.01318698    -0.66600
Ni2865     Ni  0.76223826  0.72074374  0.01932697     1.26300
O2866       O  0.81568744  0.80178061  0.99118900    -0.66800
O2867       O  0.75627523  0.68132104  0.00272336    -0.79100
C2868       C  0.77846261  0.72555703  0.09126003     0.84300
O2869       O  0.75835820  0.70727894  0.06652949    -0.66300
Ni2870     Ni  0.74124317  0.71346770  0.93549141     1.27400
Ni2871     Ni  0.77136328  0.77670947  0.98761175     1.26100
H2872       H  0.74888423  0.75707319  0.03961332     0.38800
O2873       O  0.49903977  0.53384468  0.58274936    -0.81100
O2874       O  0.52532065  0.52510015  0.73621674    -0.65800
O2875       O  0.49611836  0.00498402  0.63807349    -1.12400
C2876       C  0.92137896  0.52872907  0.66874286     1.05800
O2877       O  0.97850310  0.99551141  0.74588552    -0.79000
O2878       O  0.92487450  0.97080407  0.70329611    -0.66600
Ni2879     Ni  0.52226872  0.51740516  0.60486138     1.34900
C2880       C  0.91724887  0.95597693  0.67363471     0.84500
O2881       O  0.54648376  0.00973788  0.68177802    -0.79500
O2882       O  0.54700531  0.50184007  0.62657100    -0.89800
C2883       C  0.50801343  0.01555452  0.75537272     0.84100
O2884       O  0.55220452  0.55857524  0.62498260    -0.68000
O2885       O  0.93143324  0.02833618  0.70116478    -0.87300
C2886       C  0.56099096  0.57204802  0.65527843     0.84900
C2887       C  0.55698804  0.50131063  0.65830089     1.06500
H2888       H  0.99315681  0.55176716  0.68822828     0.38300
O2889       O  0.98328584  0.52894093  0.68769536    -1.10000
O2890       O  0.93259718  0.96838920  0.64822564    -0.66600
Ni2891     Ni  0.96237534  0.01231763  0.63956709     1.26300
O2892       O  0.54495047  0.55962197  0.68033945    -0.66800
O2893       O  0.93164076  0.52238389  0.64283822    -0.79100
C2894       C  0.97229218  0.51362023  0.57108376     0.84300
O2895       O  0.94898927  0.00015720  0.58991821    -0.66300
Ni2896     Ni  0.95583495  0.01239136  0.72243289     1.27400
Ni2897     Ni  0.51349606  0.51525505  0.68677747     1.26100
H2898       H  0.48705412  0.98224830  0.63663818     0.38800
O2899       O  0.49518704  0.73339190  0.74707882    -0.81100
O2900       O  0.52237290  0.77358069  0.59880846    -0.65800
O2901       O  0.50044442  0.77030274  0.69076530    -1.12400
C2902       C  0.90568127  0.68520174  0.64724585     1.05800
O2903       O  0.97761511  0.76995015  0.58835575    -0.79000
O2904       O  0.92734837  0.74908021  0.62244867    -0.66600
Ni2905     Ni  0.52570637  0.77319552  0.73147468     1.34900
C2906       C  0.92671124  0.75795236  0.65293943     0.84500
O2907       O  0.55056882  0.81055343  0.65887855    -0.79500
O2908       O  0.55739652  0.81274063  0.71786554    -0.89800
C2909       C  0.00173568  0.77285142  0.57975665     0.84100
O2910       O  0.54634209  0.75448826  0.71466454    -0.68000
O2911       O  0.91630801  0.69081911  0.61804905    -0.87300
C2912       C  0.55078231  0.74952309  0.68436632     0.84900
C2913       C  0.56610080  0.82314613  0.68837744     1.06500
H2914       H  0.97639790  0.71499453  0.64089685     0.38300
O2915       O  0.97383190  0.73281160  0.64338035    -1.10000
O2916       O  0.94498945  0.75934642  0.67905615    -0.66600
Ni2917     Ni  0.96217486  0.73252237  0.68841605     1.26300
O2918       O  0.53509071  0.75018963  0.65662070    -0.66800
O2919       O  0.92205996  0.69723821  0.67642719    -0.79100
C2920       C  0.97020854  0.72842760  0.76011453     0.84300
O2921       O  0.95419544  0.73272013  0.73600042    -0.66300
Ni2922     Ni  0.94744752  0.73023565  0.60384696     1.27400
Ni2923     Ni  0.51315438  0.77236389  0.64617064     1.26100
H2924       H  0.00147678  0.78664664  0.70308546     0.38800
O2925       O  0.77202508  0.52813545  0.74748972    -0.81100
O2926       O  0.75792570  0.52120329  0.59224752    -0.65800
O2927       O  0.74786734  0.53712329  0.68358836    -1.12400
C2928       C  0.67572363  0.93498612  0.68019875     1.05800
O2929       O  0.71080091  0.99698147  0.57910365    -0.79000
O2930       O  0.67373537  0.99264095  0.62543137    -0.66600
Ni2931     Ni  0.78241047  0.56177431  0.71652995     1.34900
C2932       C  0.66786202  0.99776143  0.65472700     0.84500
O2933       O  0.78105818  0.57425082  0.63278696    -0.79500
O2934       O  0.79261685  0.59601820  0.68748639    -0.89800
C2935       C  0.73434310  0.50726954  0.57027009     0.84100
O2936       O  0.81296524  0.55560496  0.69962276    -0.68000
O2937       O  0.67084768  0.93906809  0.64806083    -0.87300
C2938       C  0.81307576  0.04099592  0.67727692     0.84900
C2939       C  0.79240521  0.59810002  0.65449856     1.06500
H2940       H  0.73616528  0.97662872  0.64926189     0.38300
O2941       O  0.72692037  0.98924484  0.64789034    -1.10000
O2942       O  0.68526710  0.00092477  0.68264139    -0.66600
Ni2943     Ni  0.72228270  0.99857801  0.69352417     1.26300
O2944       O  0.78949121  0.02529541  0.65494564    -0.66800
O2945       O  0.69722731  0.95565489  0.70177223    -0.79100
C2946       C  0.74616275  0.01955334  0.76097362     0.84300
O2947       O  0.72208393  0.00966254  0.74012539    -0.66300
Ni2948     Ni  0.69172428  0.96892794  0.61490864     1.27400
Ni2949     Ni  0.75461621  0.53040940  0.63827136     1.26100
H2950       H  0.73613188  0.54716457  0.68171997     0.38800
O2951       O  0.71443855  0.73026669  0.58585653    -0.81100
O2952       O  0.72415752  0.75801912  0.74640745    -0.65800
O2953       O  0.72721033  0.76707781  0.64754576    -1.12400
C2954       C  0.81886257  0.76366886  0.67408095     1.05800
O2955       O  0.77212003  0.79607474  0.75233150    -0.79000
O2956       O  0.81305354  0.82037131  0.70654871    -0.66600
Ni2957     Ni  0.69288920  0.74250760  0.61360487     1.34900
C2958       C  0.81013675  0.82920623  0.67636152     0.84500
O2959       O  0.68729999  0.76466814  0.69431279    -0.79500
O2960       O  0.66772180  0.75205899  0.63766923    -0.89800
C2961       C  0.74854493  0.77747032  0.76627682     0.84100
O2962       O  0.67576719  0.70312162  0.63497477    -0.68000
O2963       O  0.81694982  0.76840189  0.70595388    -0.87300
C2964       C  0.67523396  0.69513694  0.66629890     0.84900
C2965       C  0.66627110  0.75856585  0.66908062     1.06500
H2966       H  0.75173326  0.73481602  0.69767980     0.38300
O2967       O  0.75826260  0.75678913  0.69480630    -1.10000
O2968       O  0.78985477  0.81030254  0.65190751    -0.66600
Ni2969     Ni  0.76288685  0.76402699  0.64677702     1.26300
O2970       O  0.69394969  0.71443935  0.69168464    -0.66800
O2971       O  0.79920502  0.76109184  0.64880803    -0.79100
C2972       C  0.74022595  0.74844547  0.57540723     0.84300
O2973       O  0.76298672  0.76795197  0.59706033    -0.66300
Ni2974     Ni  0.79317879  0.78116778  0.72830319     1.27400
Ni2975     Ni  0.72296914  0.76071097  0.69606591     1.26100
H2976       H  0.73333624  0.78890018  0.64432671     0.38800
C2977       C  0.82576146  0.65380302  0.66859033    -0.06000
C2978       C  0.80973885  0.63004671  0.64188063    -0.00100
C2979       C  0.82327151  0.63317790  0.61151006    -0.08600
C2980       C  0.85489825  0.65093208  0.61444348    -0.06000
C2981       C  0.87242238  0.66673779  0.64646721    -0.00100
C2982       C  0.85739971  0.66873344  0.67437981    -0.08500
C2983       C  0.87325102  0.68384904  0.71077094     0.61800
H2984       H  0.81342810  0.65400700  0.68928167     0.12500
H2985       H  0.86569240  0.65156631  0.59179191     0.12500
C2986       C  0.80517793  0.61618209  0.57696731     0.62100
F2987       F  0.85290486  0.67992986  0.73347651    -0.23100
F2988       F  0.89313792  0.71600373  0.70948609    -0.20400
F2989       F  0.88871731  0.66979233  0.72481601    -0.20100
F2990       F  0.77424914  0.60242489  0.57782789    -0.20200
F2991       F  0.81101814  0.59294048  0.56871349    -0.20500
F2992       F  0.81366934  0.63763762  0.55123259    -0.23200
C2993       C  0.60749005  0.87379883  0.71636021    -0.06000
C2994       C  0.59659779  0.85068492  0.68873164    -0.00100
C2995       C  0.61580743  0.85329288  0.66380184    -0.08600
C2996       C  0.64536178  0.87920803  0.66793162    -0.06000
C2997       C  0.65411677  0.90447702  0.69167090    -0.00100
C2998       C  0.63598756  0.90161184  0.71761614    -0.08500
C2999       C  0.64577236  0.92830708  0.74483032     0.61800
H3000       H  0.59269058  0.87089899  0.73553922     0.12500
H3001       H  0.66052881  0.88242697  0.64905481     0.12500
C3002       C  0.60533313  0.83100222  0.63133769     0.62100
F3003       F  0.62484180  0.91976989  0.76823754    -0.23100
F3004       F  0.64874773  0.95461199  0.72880350    -0.20400
F3005       F  0.67332763  0.93618574  0.76342401    -0.20100
F3006       F  0.59258526  0.80007794  0.64016817    -0.20200
F3007       F  0.62908360  0.83767166  0.61276548    -0.20500
F3008       F  0.58425890  0.83402859  0.60936195    -0.23200
C3009       C  0.87499810  0.78463296  0.68562669    -0.06000
C3010       C  0.84637359  0.76264449  0.66679424    -0.00100
C3011       C  0.84501250  0.74042196  0.64255888    -0.08600
C3012       C  0.87196282  0.74082749  0.63843524    -0.06000
C3013       C  0.90052634  0.76236803  0.65770874    -0.00100
C3014       C  0.90202652  0.78505461  0.68137035    -0.08500
C3015       C  0.93211657  0.81020735  0.70124286     0.61800
H3016       H  0.87608920  0.80178674  0.70390506     0.12500
H3017       H  0.87065058  0.72338799  0.62041691     0.12500
C3018       C  0.81503663  0.71550468  0.62201692     0.62100
F3019       F  0.92963401  0.83296868  0.71854134    -0.23100
F3020       F  0.95348087  0.82528463  0.67843519    -0.20400
F3021       F  0.94221169  0.79634381  0.72560877    -0.20100
F3022       F  0.80459161  0.72993519  0.59873295    -0.20200
F3023       F  0.79372679  0.69898383  0.64454026    -0.20500
F3024       F  0.81794768  0.69381279  0.60314970    -0.23200
C3025       C  0.60645731  0.77335162  0.70066063    -0.06000
C3026       C  0.57905937  0.74842235  0.68227925    -0.00100
C3027       C  0.58059084  0.72599477  0.66154945    -0.08600
C3028       C  0.60943692  0.73031225  0.65847466    -0.06000
C3029       C  0.63698556  0.75602729  0.67568191    -0.00100
C3030       C  0.63532226  0.77785660  0.69741797    -0.08500
C3031       C  0.66387812  0.80682474  0.71547890     0.61800
H3032       H  0.60520745  0.79049139  0.71649614     0.12500
H3033       H  0.61067567  0.71319639  0.64258595     0.12500
C3034       C  0.55189215  0.69680802  0.64431529     0.62100
F3035       F  0.65740427  0.82674152  0.73237167    -0.23100
F3036       F  0.68303330  0.82391615  0.69113391    -0.20400
F3037       F  0.67868767  0.79756273  0.74002396    -0.20100
F3038       F  0.53625022  0.70556840  0.62054368    -0.20200
F3039       F  0.53356176  0.67991368  0.66938928    -0.20500
F3040       F  0.55815671  0.67699127  0.62685544    -0.23200
C3041       C  0.85381423  0.86846404  0.64595415    -0.06000
C3042       C  0.83329555  0.86277245  0.66996327    -0.00100
C3043       C  0.83880199  0.88855934  0.69180415    -0.08600
C3044       C  0.86613946  0.91813508  0.69155401    -0.06000
C3045       C  0.88806648  0.92360307  0.66941139    -0.00100
C3046       C  0.88077129  0.89864397  0.64464516    -0.08500
C3047       C  0.90126777  0.90344489  0.61726351     0.61800
H3048       H  0.84911686  0.84862788  0.62905798     0.12500
H3049       H  0.87054741  0.93746623  0.70906912     0.12500
C3050       C  0.81535979  0.88506955  0.71461585     0.62100
F3051       F  0.89078069  0.87579638  0.59711581    -0.23100
F3052       F  0.93025878  0.91339271  0.63308994    -0.20400
F3053       F  0.90231734  0.92597582  0.59524369    -0.20100
F3054       F  0.81278286  0.86519335  0.74088715    -0.20200
F3055       F  0.78741867  0.87256582  0.69448537    -0.20500
F3056       F  0.82306130  0.91393320  0.73000376    -0.23200
C3057       C  0.64331469  0.63899789  0.64478273    -0.06000
C3058       C  0.65013093  0.66164786  0.67135876    -0.00100
C3059       C  0.62867061  0.65337285  0.69546898    -0.08600
C3060       C  0.60015553  0.62398056  0.68988337    -0.06000
C3061       C  0.59211453  0.60266932  0.66087360    -0.00100
C3062       C  0.61512770  0.61008473  0.63867061    -0.08500
C3063       C  0.61075372  0.58838972  0.60780513     0.61800
H3064       H  0.66004768  0.64531965  0.62702105     0.12500
H3065       H  0.58348657  0.61792748  0.70764200     0.12500
C3066       C  0.63536749  0.67570976  0.72640339     0.62100
F3067       F  0.63730538  0.59903060  0.59307911    -0.23100
F3068       F  0.58939926  0.58701462  0.58196586    -0.20400
F3069       F  0.60165155  0.55838397  0.61846689    -0.20100
F3070       F  0.63862291  0.70360129  0.71498595    -0.20200
F3071       F  0.66192782  0.68228645  0.74648188    -0.20500
F3072       F  0.61226068  0.66277149  0.74736672    -0.23200
C3073       C  0.89705270  0.55951997  0.68253946    -0.06000
C3074       C  0.89382771  0.03366165  0.66650896    -0.00100
C3075       C  0.86547343  0.01429422  0.64526819    -0.08600
C3076       C  0.84014937  0.01739499  0.64968327    -0.06000
C3077       C  0.84160380  0.03932522  0.67445394    -0.00100
C3078       C  0.87195199  0.56334405  0.68488195    -0.08500
C3079       C  0.87817693  0.59381456  0.70271209     0.61800
H3080       H  0.91919790  0.57674323  0.69612605     0.12500
H3081       H  0.81860922  0.00208001  0.63383543     0.12500
C3082       C  0.86157206  0.98959512  0.61875490     0.62100
F3083       F  0.90902108  0.61625875  0.70907855    -0.23100
F3084       F  0.86670026  0.58763887  0.73430092    -0.20400
F3085       F  0.86882351  0.10615720  0.70361692    -0.20100
F3086       F  0.86771600  0.46517935  0.64464420    -0.20200
F3087       F  0.88152686  0.00429835  0.59442827    -0.20500
F3088       F  0.83237811  0.97273160  0.60117907    -0.23200
C3089       C  0.58633093  0.98274891  0.63354883    -0.06000
C3090       C  0.58477474  0.00120375  0.65981801    -0.00100
C3091       C  0.61045698  0.51436382  0.68760354    -0.08600
C3092       C  0.63662757  0.51234105  0.68486795    -0.06000
C3093       C  0.63897156  0.99864428  0.65596090    -0.00100
C3094       C  0.61236904  0.98090592  0.63102691    -0.08500
C3095       C  0.61055086  0.95923598  0.60177642     0.61800
H3096       H  0.56667562  0.96994448  0.61405903     0.12500
H3097       H  0.65726823  0.52677959  0.70257227     0.12500
C3098       C  0.61184153  0.53637421  0.71579448     0.62100
F3099       F  0.58159415  0.94152290  0.58367000    -0.23100
F3100       F  0.61812915  0.93811068  0.61543405    -0.20400
F3101       F  0.63000554  0.97707204  0.57800848    -0.20100
F3102       F  0.59010893  0.51894596  0.73752629    -0.20200
F3103       F  0.60646961  0.55860714  0.70089795    -0.20500
F3104       F  0.63996347  0.55244811  0.73596915    -0.23200
C3105       C  0.77628178  0.79088958  0.86509397    -0.06000
C3106       C  0.74876218  0.77697156  0.87922914    -0.00100
C3107       C  0.72140042  0.76582911  0.85626452    -0.08600
C3108       C  0.72244074  0.76714238  0.81988466    -0.06000
C3109       C  0.74981171  0.77931563  0.80542237    -0.00100
C3110       C  0.77750819  0.79192872  0.82877323    -0.08500
C3111       C  0.80839672  0.80503205  0.81613268     0.61800
H3112       H  0.79692217  0.79935767  0.88292947     0.12500
H3113       H  0.70148043  0.75777213  0.80236935     0.12500
C3114       C  0.69083891  0.75155357  0.86969989     0.62100
F3115       F  0.83127769  0.81273142  0.84329809    -0.23100
F3116       F  0.81629634  0.83237837  0.79907905    -0.20400
F3117       F  0.80742767  0.78260552  0.79398485    -0.20100
F3118       F  0.69337473  0.76866151  0.89940073    -0.20200
F3119       F  0.68046739  0.72047230  0.87721703    -0.20500
F3120       F  0.66944048  0.75179073  0.84521484    -0.23200
C3121       C  0.80993812  0.88323137  0.01260844    -0.06000
C3122       C  0.79108908  0.86156176  0.03518224    -0.00100
C3123       C  0.77661787  0.86981111  0.05799436    -0.08600
C3124       C  0.77843147  0.89872301  0.05404745    -0.06000
C3125       C  0.79342786  0.91813311  0.02754090    -0.00100
C3126       C  0.81198587  0.91218168  0.00906581    -0.08500
C3127       C  0.83325529  0.93510689  0.98486399     0.61800
H3128       H  0.82232330  0.87703866  0.99682934     0.12500
H3129       H  0.76519257  0.90447813  0.06875090     0.12500
C3130       C  0.75753124  0.84724180  0.08412603     0.62100
F3131       F  0.86201147  0.94020146  0.99397498    -0.23100
F3132       F  0.83566469  0.96423025  0.98678310    -0.20400
F3133       F  0.82294953  0.92225123  0.95092650    -0.20100
F3134       F  0.77577855  0.84185801  0.10826139    -0.20200
F3135       F  0.73492366  0.81871411  0.06705914    -0.20500
F3136       F  0.74378381  0.85938196  0.10202007    -0.23200
C3137       C  0.74042809  0.59004988  0.94602328    -0.06000
C3138       C  0.71946428  0.57134011  0.96875471    -0.00100
C3139       C  0.70499504  0.58332334  0.98639887    -0.08600
C3140       C  0.71651960  0.61569851  0.98655829    -0.06000
C3141       C  0.74095856  0.63558230  0.96827148    -0.00100
C3142       C  0.75187940  0.62262150  0.94567143    -0.08500
C3143       C  0.77689397  0.64311415  0.92359309     0.61800
H3144       H  0.75066128  0.57988745  0.93207632     0.12500
H3145       H  0.70663840  0.62560093  0.00159794     0.12500
C3146       C  0.67844317  0.56294428  0.00635415     0.62100
F3147       F  0.78641839  0.62580435  0.90694742    -0.23100
F3148       F  0.80177095  0.66725557  0.94443761    -0.20400
F3149       F  0.76641847  0.65603325  0.89823745    -0.20100
F3150       F  0.68704600  0.57204037  0.04149687    -0.20200
F3151       F  0.66811249  0.53102760  0.00168370    -0.20500
F3152       F  0.65464943  0.56704365  0.99473550    -0.23200
C3153       C  0.73595802  0.51640340  0.85377635    -0.06000
C3154       C  0.74159866  0.99432176  0.86694275    -0.00100
C3155       C  0.76008546  0.98988161  0.84635367    -0.08600
C3156       C  0.76117497  0.99890493  0.81190531    -0.06000
C3157       C  0.74394328  0.01141940  0.79756409    -0.00100
C3158       C  0.73513110  0.52220644  0.81830120    -0.08500
C3159       C  0.72341220  0.54304430  0.80446514     0.61800
H3160       H  0.72833041  0.52688697  0.87144800     0.12500
H3161       H  0.77513130  0.99569790  0.79559353     0.12500
C3162       C  0.77891182  0.97614727  0.86086862     0.62100
F3163       F  0.71728137  0.55667267  0.83101564    -0.23100
F3164       F  0.69682640  0.52498080  0.78203886    -0.20400
F3165       F  0.74485544  0.56723668  0.78672926    -0.20100
F3166       F  0.75979961  0.94473372  0.86755885    -0.20200
F3167       F  0.79681772  0.99302966  0.89142076    -0.20500
F3168       F  0.79795085  0.97738368  0.83774762    -0.23200
C3169       C  0.83941733  0.60865853  0.98169282    -0.06000
C3170       C  0.83118263  0.59118016  0.01169003    -0.00100
C3171       C  0.85393575  0.59959247  0.04043755    -0.08600
C3172       C  0.88292148  0.62648119  0.03934743    -0.06000
C3173       C  0.89148550  0.64465368  0.00989202    -0.00100
C3174       C  0.86938751  0.63475150  0.97981661    -0.08500
C3175       C  0.87707957  0.65086561  0.94574615     0.61800
H3176       H  0.82209023  0.60156094  0.95951504     0.12500
H3177       H  0.89951487  0.63296874  0.06210402     0.12500
C3178       C  0.84845690  0.57979326  0.07204386     0.62100
F3179       F  0.85203344  0.63784656  0.92042236    -0.23100
F3180       F  0.89908325  0.64732237  0.93313841    -0.20400
F3181       F  0.88762212  0.68277303  0.95092562    -0.20100
F3182       F  0.83454898  0.54806611  0.06133821    -0.20200
F3183       F  0.83036655  0.58410588  0.09215374    -0.20500
F3184       F  0.87528708  0.58818810  0.09290142    -0.23200
C3185       C  0.64832035  0.89305146  0.97699619    -0.06000
C3186       C  0.67134194  0.88861116  0.99209474    -0.00100
C3187       C  0.66372655  0.85968495  0.00714250    -0.08600
C3188       C  0.63272278  0.83546167  0.00571881    -0.06000
C3189       C  0.60940657  0.83939500  0.98944910    -0.00100
C3190       C  0.61743946  0.86919303  0.97544616    -0.08500
C3191       C  0.59398396  0.87654635  0.95903734     0.61800
H3192       H  0.65491484  0.91552970  0.96580501     0.12500
H3193       H  0.62653146  0.81293615  0.01647918     0.12500
C3194       C  0.68838923  0.85452738  0.02406928     0.62100
F3195       F  0.60675306  0.90861728  0.95435657    -0.23100
F3196       F  0.57160429  0.86780226  0.98030292    -0.20400
F3197       F  0.58111523  0.86046425  0.92673761    -0.20100
F3198       F  0.70487909  0.87652879  0.05188375    -0.20200
F3199       F  0.70769284  0.85815900  0.00012488    -0.20500
F3200       F  0.67644207  0.82448925  0.03630695    -0.23200
C3201       C  0.95906017  0.74402564  0.85209861    -0.06000
C3202       C  0.96499032  0.72301803  0.87079517    -0.00100
C3203       C  0.46937629  0.70093260  0.84404115    -0.08600
C3204       C  0.46916287  0.70242428  0.80757279    -0.06000
C3205       C  0.96313458  0.72394596  0.79688892    -0.00100
C3206       C  0.95797984  0.74487092  0.81554946    -0.08500
C3207       C  0.95282949  0.76907179  0.79730264     0.61800
H3208       H  0.95647695  0.76088115  0.86666476     0.12500
H3209       H  0.47728813  0.69000513  0.79366847     0.12500
C3210       C  0.48118834  0.68203013  0.86333496     0.62100
F3211       F  0.94959081  0.78802334  0.82042190    -0.23100
F3212       F  0.92648697  0.75338532  0.77406549    -0.20400
F3213       F  0.97727359  0.78864002  0.77971698    -0.20100
F3214       F  0.45882213  0.65899565  0.88116651    -0.20200
F3215       F  0.50657004  0.70203305  0.88665372    -0.20500
F3216       F  0.48940221  0.66697072  0.84087565    -0.23200
C3217       C  0.92309675  0.87953256  0.02629538    -0.06000
C3218       C  0.92386076  0.89862269  0.99885819    -0.00100
C3219       C  0.89658118  0.88810335  0.97601550    -0.08600
C3220       C  0.86982693  0.85923703  0.98161667    -0.06000
C3221       C  0.86884731  0.84009362  0.00923773    -0.00100
C3222       C  0.89644570  0.85047967  0.03180948    -0.08500
C3223       C  0.89842569  0.83114489  0.06147113     0.61800
H3224       H  0.94405322  0.88737166  0.04330567     0.12500
H3225       H  0.84904079  0.85174564  0.96445471     0.12500
C3226       C  0.89526457  0.90745827  0.94611104     0.62100
F3227       F  0.92826403  0.84223173  0.07512165    -0.23100
F3228       F  0.88539902  0.79983857  0.04960662    -0.20400
F3229       F  0.88359946  0.83281716  0.08816480    -0.20100
F3230       F  0.90957832  0.90459640  0.91955702    -0.20200
F3231       F  0.90946157  0.93905991  0.95742611    -0.20500
F3232       F  0.86558657  0.89730516  0.93270791    -0.23200
C3233       C  0.61504835  0.61091813  0.97194096    -0.06000
C3234       C  0.61099073  0.59800853  0.00473956    -0.00100
C3235       C  0.63561089  0.61355402  0.03198879    -0.08600
C3236       C  0.66287361  0.64158743  0.02548056    -0.06000
C3237       C  0.66683425  0.65508392  0.99284233    -0.00100
C3238       C  0.64192935  0.63930036  0.96554311    -0.08500
C3239       C  0.64284518  0.65233415  0.92971868     0.61800
H3240       H  0.59633923  0.59886639  0.95120644     0.12500
H3241       H  0.68168221  0.65293413  0.04597166     0.12500
C3242       C  0.63359902  0.59997787  0.06756161     0.62100
F3243       F  0.61439328  0.63730479  0.91025282    -0.23100
F3244       F  0.66180601  0.64791807  0.91128113    -0.20400
F3245       F  0.65306230  0.68428731  0.93320581    -0.20100
F3246       F  0.62185795  0.56768952  0.06379879    -0.20200
F3247       F  0.61517597  0.60546478  0.08574475    -0.20500
F3248       F  0.66176284  0.61356347  0.08724515    -0.23200
C3249       C  0.98824802  0.86286889  0.01295249    -0.06000
C3250       C  0.50773696  0.88863610  0.01344961    -0.00100
C3251       C  0.53190690  0.88600440  0.02977170    -0.08600
C3252       C  0.52865920  0.85607843  0.02846791    -0.06000
C3253       C  0.50318512  0.83010674  0.00925995    -0.00100
C3254       C  0.98760155  0.83442671  0.01017633    -0.08500
C3255       C  0.95779996  0.80322172  0.00055372     0.61800
H3256       H  0.96751805  0.86296448  0.00621870     0.12500
H3257       H  0.54752071  0.85365325  0.03882792     0.12500
C3258       C  0.56176833  0.91485158  0.04550614     0.62100
F3259       F  0.93307573  0.80686663  0.99897645    -0.23100
F3260       F  0.95461799  0.78186561  0.02539812    -0.20400
F3261       F  0.95745994  0.79089456  0.96840862    -0.20100
F3262       F  0.55680538  0.92863810  0.07292779    -0.20200
F3263       F  0.57407444  0.93664260  0.02051180    -0.20500
F3264       F  0.58285728  0.90701781  0.05806350    -0.23200
C3265       C  0.97517542  0.58657450  0.99508083    -0.06000
C3266       C  0.50632767  0.59657718  0.97926181    -0.00100
C3267       C  0.52941020  0.62879523  0.97810316    -0.08600
C3268       C  0.52169744  0.65187803  0.98028718    -0.06000
C3269       C  0.49187331  0.64303451  0.98395992    -0.00100
C3270       C  0.96849012  0.61033874  0.99758990    -0.08500
C3271       C  0.93687043  0.60173067  0.00400000     0.61800
H3272       H  0.95851181  0.56235497  0.00005829     0.12500
H3273       H  0.53915307  0.67687540  0.98172578     0.12500
C3274       C  0.56195521  0.63844331  0.97579022     0.62100
F3275       F  0.91683017  0.56919902  0.00242685    -0.23100
F3276       F  0.92565098  0.61414306  0.97883640    -0.20400
F3277       F  0.93792353  0.61383046  0.03657480    -0.20100
F3278       F  0.56268145  0.62278987  0.94679916    -0.20200
F3279       F  0.57337338  0.63048763  0.00536322    -0.20500
F3280       F  0.58056023  0.67075611  0.97268559    -0.23200
C3281       C  0.52270325  0.53163993  0.85326823    -0.06000
C3282       C  0.51848299  0.00773207  0.86550084    -0.00100
C3283       C  0.01422441  0.98042917  0.84298839    -0.08600
C3284       C  0.01351578  0.98525608  0.80712252    -0.06000
C3285       C  0.51761546  0.01571955  0.79286905    -0.00100
C3286       C  0.52283860  0.53573591  0.81713551    -0.08500
C3287       C  0.53165465  0.56775973  0.80325654     0.61800
H3288       H  0.52934339  0.55161849  0.87112154     0.12500
H3289       H  0.00949539  0.96671114  0.78858583     0.12500
C3290       C  0.01261255  0.95046686  0.85527191     0.62100
F3291       F  0.54090662  0.59075203  0.82985459    -0.23100
F3292       F  0.50701865  0.56537672  0.78252673    -0.20400
F3293       F  0.55539316  0.57755869  0.78364355    -0.20100
F3294       F  0.98367290  0.92895239  0.86308147    -0.20200
F3295       F  0.03352140  0.95760250  0.88449518    -0.20500
F3296       F  0.01923945  0.93619660  0.82991126    -0.23200
C3297       C  0.72466160  0.71463463  0.52020070    -0.06000
C3298       C  0.74316344  0.74496606  0.53759396    -0.00100
C3299       C  0.76168220  0.77094448  0.51782947    -0.08600
C3300       C  0.76089266  0.76552155  0.48167333    -0.06000
C3301       C  0.74298195  0.73508813  0.46471236    -0.00100
C3302       C  0.72441572  0.70915528  0.48428587    -0.08500
C3303       C  0.70362699  0.67594668  0.46707068     0.61800
H3304       H  0.71037288  0.69493078  0.53518205     0.12500
H3305       H  0.77509736  0.78503326  0.46640967     0.12500
C3306       C  0.78208483  0.80434736  0.53455229     0.62100
F3307       F  0.68546214  0.65472085  0.48993153    -0.23100
F3308       F  0.72070409  0.66481924  0.45520397    -0.20400
F3309       F  0.68479477  0.67655393  0.43928559    -0.20100
F3310       F  0.80495554  0.80567225  0.55783430    -0.20200
F3311       F  0.76526971  0.81286808  0.55190961    -0.20500
F3312       F  0.79562090  0.82641367  0.51012059    -0.23200
C3313       C  0.74165365  0.71068055  0.17575072    -0.06000
C3314       C  0.76725121  0.72588960  0.20092884    -0.00100
C3315       C  0.79641872  0.73789891  0.19058822    -0.08600
C3316       C  0.79902388  0.73599393  0.15474689    -0.06000
C3317       C  0.77336944  0.72157044  0.12905687    -0.00100
C3318       C  0.74404200  0.70761032  0.14019587    -0.08500
C3319       C  0.71523475  0.68930916  0.11493438     0.61800
H3320       H  0.71952825  0.70130728  0.18431961     0.12500
H3321       H  0.82134632  0.74633632  0.14643984     0.12500
C3322       C  0.82461314  0.75337283  0.21727375     0.62100
F3323       F  0.68927622  0.67686528  0.13128709    -0.23100
F3324       F  0.71528425  0.66435888  0.09930268    -0.20400
F3325       F  0.71393242  0.70885166  0.09007138    -0.20100
F3326       F  0.82290723  0.73143586  0.24059508    -0.20200
F3327       F  0.82668784  0.77866297  0.23518814    -0.20500
F3328       F  0.85092393  0.76456720  0.20190166    -0.23200
C3329       C  0.76096910  0.98746739  0.49069315    -0.06000
C3330       C  0.74094210  0.98956604  0.46495148    -0.00100
C3331       C  0.75543940  0.52394468  0.47999034    -0.08600
C3332       C  0.75196105  0.52772468  0.51463436    -0.06000
C3333       C  0.74141329  0.00289681  0.53560528    -0.00100
C3334       C  0.76160337  0.99393712  0.52612899    -0.08500
C3335       C  0.78301659  0.99021317  0.55299292     0.61800
H3336       H  0.77641117  0.98092917  0.48276284     0.12500
H3337       H  0.76035260  0.55110549  0.52642157     0.12500
C3338       C  0.77168422  0.55318187  0.45932018     0.62100
F3339       F  0.79852190  0.97859953  0.53787967    -0.23100
F3340       F  0.76667768  0.96920392  0.57707458    -0.20400
F3341       F  0.80437606  0.01933028  0.56984456    -0.20100
F3342       F  0.75127169  0.55338751  0.43334869    -0.20200
F3343       F  0.79476670  0.55315163  0.44473155    -0.20500
F3344       F  0.78456716  0.58099320  0.48007395    -0.23200
C3345       C  0.75668813  0.84089070  0.36215621    -0.06000
C3346       C  0.75418591  0.82945299  0.32783449    -0.00100
C3347       C  0.75023970  0.84682535  0.30013153    -0.08600
C3348       C  0.75037838  0.87488974  0.30808314    -0.06000
C3349       C  0.75276251  0.88615426  0.34235100    -0.00100
C3350       C  0.75502266  0.86792276  0.36995603    -0.08500
C3351       C  0.75464103  0.87587562  0.40774054     0.61800
H3352       H  0.75956496  0.82805049  0.38338245     0.12500
H3353       H  0.74874135  0.88859399  0.28706623     0.12500
C3354       C  0.74508793  0.83593073  0.26192986     0.62100
F3355       F  0.75010007  0.85143051  0.42875533    -0.23100
F3356       F  0.73115154  0.88098488  0.41016148    -0.20400
F3357       F  0.78207635  0.90265326  0.42059402    -0.20100
F3358       F  0.71890381  0.80619797  0.25560169    -0.20200
F3359       F  0.76980458  0.83502295  0.25355962    -0.20500
F3360       F  0.74145561  0.85607772  0.23983188    -0.23200
C3361       C  0.77569873  0.63042195  0.34944301    -0.06000
C3362       C  0.75252772  0.63632164  0.33787289    -0.00100
C3363       C  0.72463017  0.61089372  0.32075006    -0.08600
C3364       C  0.72086845  0.58051395  0.31650599    -0.06000
C3365       C  0.74411377  0.57459755  0.32811407    -0.00100
C3366       C  0.77231124  0.60037069  0.34427924    -0.08500
C3367       C  0.79941346  0.59685153  0.35412712     0.61800
H3368       H  0.79710339  0.65008155  0.36195713     0.12500
H3369       H  0.69938425  0.56085948  0.30414739     0.12500
C3370       C  0.69869361  0.61558131  0.30776829     0.62100
F3371       F  0.82541703  0.62548840  0.36614425    -0.23100
F3372       F  0.80518192  0.58549815  0.32523240    -0.20400
F3373       F  0.79359089  0.57604588  0.38016980    -0.20100
F3374       F  0.70680005  0.63583304  0.28088378    -0.20200
F3375       F  0.69215420  0.62844996  0.33462926    -0.20500
F3376       F  0.67246949  0.58725153  0.29540635    -0.23200
C3377       C  0.73090820  0.95554451  0.14470935    -0.06000
C3378       C  0.75197901  0.47948370  0.13291723    -0.00100
C3379       C  0.77830134  0.48958771  0.15702379    -0.08600
C3380       C  0.77503291  0.48547048  0.19255047    -0.06000
C3381       C  0.74636327  0.47154946  0.20390846    -0.00100
C3382       C  0.72729259  0.95179284  0.18007548    -0.08500
C3383       C  0.69683222  0.92707845  0.19102391     0.61800
H3384       H  0.71173782  0.94112459  0.12506072     0.12500
H3385       H  0.79490201  0.49454595  0.21185315     0.12500
C3386       C  0.80947756  0.50458864  0.14516034     0.62100
F3387       F  0.67598765  0.90866239  0.16272901    -0.23100
F3388       F  0.68496618  0.94187169  0.20791627    -0.20400
F3389       F  0.70066284  0.90724447  0.21335791    -0.20100
F3390       F  0.81625440  0.53191798  0.12880247    -0.20200
F3391       F  0.80971777  0.48349645  0.12211577    -0.20500
F3392       F  0.83201730  0.51249628  0.17280019    -0.23200
C3393       C  0.52426857  0.75743627  0.48652331    -0.06000
C3394       C  0.00780632  0.76881559  0.46858949    -0.00100
C3395       C  0.98007374  0.76038887  0.48075118    -0.08600
C3396       C  0.97951412  0.76307762  0.51698923    -0.06000
C3397       C  0.00576547  0.77417181  0.54159591    -0.00100
C3398       C  0.52464356  0.76024894  0.52287469    -0.08500
C3399       C  0.53873917  0.74558745  0.54649566     0.61800
H3400       H  0.53501646  0.74591169  0.47660493     0.12500
H3401       H  0.95801781  0.75540411  0.52638738     0.12500
C3402       C  0.95098133  0.74723913  0.45569202     0.62100
F3403       F  0.55028540  0.73127788  0.52806162    -0.23100
F3404       F  0.51675757  0.72259360  0.56469879    -0.20400
F3405       F  0.56245417  0.76872544  0.56944644    -0.20100
F3406       F  0.94497787  0.72006861  0.43774547    -0.20200
F3407       F  0.95410414  0.76956978  0.43220417    -0.20500
F3408       F  0.92623077  0.73959782  0.47282027    -0.23200
C3409       C  0.85606132  0.71321346  0.32483853    -0.06000
C3410       C  0.85765691  0.74130526  0.33452274    -0.00100
C3411       C  0.88553131  0.77047185  0.33950791    -0.08600
C3412       C  0.91192448  0.77030678  0.33679422    -0.06000
C3413       C  0.91048133  0.74211752  0.32805829    -0.00100
C3414       C  0.88244277  0.71321893  0.32098194    -0.08500
C3415       C  0.88066472  0.68285102  0.31012129     0.61800
H3416       H  0.83403704  0.69132086  0.32072435     0.12500
H3417       H  0.93390841  0.79228169  0.34077855     0.12500
C3418       C  0.88703129  0.80139228  0.34648249     0.62100
F3419       F  0.85097737  0.65724967  0.30540848    -0.23100
F3420       F  0.89714056  0.67622664  0.33551262    -0.20400
F3421       F  0.89255260  0.68628233  0.27902299    -0.20100
F3422       F  0.87589730  0.80080330  0.37748379    -0.20200
F3423       F  0.86963556  0.80535647  0.31961030    -0.20500
F3424       F  0.91651585  0.82729655  0.34871588    -0.23200
C3425       C  0.63386342  0.75890050  0.36125819    -0.06000
C3426       C  0.61221184  0.75127901  0.33203642    -0.00100
C3427       C  0.61195482  0.73453217  0.30221941    -0.08600
C3428       C  0.63412252  0.72668226  0.30286090    -0.06000
C3429       C  0.65608605  0.73491979  0.33183498    -0.00100
C3430       C  0.65556794  0.75042596  0.36213266    -0.08500
C3431       C  0.67785542  0.75866472  0.39501729     0.61800
H3432       H  0.63320525  0.77118159  0.38391417     0.12500
H3433       H  0.63508723  0.71465876  0.28017485     0.12500
C3434       C  0.58853413  0.72441265  0.27004255     0.62100
F3435       F  0.67279489  0.77378989  0.42103915    -0.23100
F3436       F  0.70715940  0.77875543  0.38773881    -0.20400
F3437       F  0.67499824  0.73127230  0.40788826    -0.20100
F3438       F  0.59092537  0.75088376  0.25506733    -0.20200
F3439       F  0.55963664  0.70506628  0.27904154    -0.20500
F3440       F  0.59257343  0.70752955  0.24501284    -0.23200
C3441       C  0.04101867  0.78350743  0.14690760    -0.06000
C3442       C  0.53441506  0.75201249  0.12597231    -0.00100
C3443       C  0.53361158  0.72985407  0.15014544    -0.08600
C3444       C  0.53240908  0.73504194  0.18571088    -0.06000
C3445       C  0.53234110  0.76160208  0.19838739    -0.00100
C3446       C  0.03940895  0.78877338  0.18229135    -0.08500
C3447       C  0.04012109  0.81862030  0.19316838     0.61800
H3448       H  0.04091912  0.79971148  0.12810975     0.12500
H3449       H  0.53020817  0.71739294  0.20374258     0.12500
C3450       C  0.53366623  0.70051385  0.13894842     0.62100
F3451       F  0.04805811  0.83980686  0.16710745    -0.23100
F3452       F  0.06140294  0.83392544  0.22218091    -0.20400
F3453       F  0.01171055  0.81086458  0.20058846    -0.20100
F3454       F  0.55582681  0.70856560  0.11734432    -0.20200
F3455       F  0.50548212  0.67820117  0.12163963    -0.20500
F3456       F  0.53984718  0.68665875  0.16722239    -0.23200
C3457       C  0.47819491  0.53521037  0.51039486    -0.06000
C3458       C  0.96801959  0.50307003  0.53381314    -0.00100
C3459       C  0.96992361  0.97907015  0.52065302    -0.08600
C3460       C  0.97547159  0.97800801  0.48605746    -0.06000
C3461       C  0.97604061  0.99958268  0.46180311    -0.00100
C3462       C  0.48396512  0.53417278  0.47574807    -0.08500
C3463       C  0.49749335  0.56448605  0.45652215     0.61800
H3464       H  0.48408292  0.55752459  0.52302898     0.12500
H3465       H  0.98068720  0.96054285  0.47848393     0.12500
C3466       C  0.97214477  0.95554983  0.54417021     0.62100
F3467       F  0.50233252  0.59007745  0.47677925    -0.23100
F3468       F  0.47794515  0.56063003  0.42704752    -0.20400
F3469       F  0.52521507  0.57172744  0.44726855    -0.20100
F3470       F  0.96610966  0.95755905  0.57752625    -0.20200
F3471       F  0.00111825  0.96069008  0.54605949    -0.20500
F3472       F  0.95141694  0.92505122  0.53015692    -0.23200
C3473       C  0.53095293  0.90373869  0.35223122    -0.06000
C3474       C  0.50558255  0.90583738  0.33965611    -0.00100
C3475       C  0.98661488  0.88379821  0.31013880    -0.08600
C3476       C  0.98812967  0.85623086  0.30636394    -0.06000
C3477       C  0.50719537  0.84984906  0.32569797    -0.00100
C3478       C  0.53222814  0.87631567  0.34575904    -0.08500
C3479       C  0.56048099  0.87597968  0.35968798     0.61800
H3480       H  0.55011248  0.92411598  0.36719994     0.12500
H3481       H  0.97508978  0.83984952  0.28396854     0.12500
C3482       C  0.96701457  0.88966164  0.28290734     0.62100
F3483       F  0.58399925  0.90563706  0.37331935    -0.23100
F3484       F  0.57042963  0.86657208  0.33317083    -0.20400
F3485       F  0.55391362  0.85509202  0.38585251    -0.20100
F3486       F  0.98529964  0.91540405  0.26450563    -0.20200
F3487       F  0.94782447  0.89560751  0.29891687    -0.20500
F3488       F  0.94919599  0.86376345  0.25931487    -0.23200
C3489       C  0.53311859  0.65423855  0.35132521    -0.06000
C3490       C  0.51159571  0.66000364  0.33315674    -0.00100
C3491       C  0.99290671  0.64055808  0.31700936    -0.08600
C3492       C  0.99024426  0.61069664  0.31308907    -0.06000
C3493       C  0.50699499  0.59992459  0.32538993    -0.00100
C3494       C  0.53167186  0.62503956  0.34740389    -0.08500
C3495       C  0.55727991  0.62180727  0.36537370     0.61800
H3496       H  0.55176762  0.67336859  0.36830653     0.12500
H3497       H  0.97196566  0.59251992  0.29489375     0.12500
C3498       C  0.96999809  0.64648052  0.29631370     0.62100
F3499       F  0.58110911  0.65036830  0.38120203    -0.23100
F3500       F  0.56855289  0.61153114  0.34124558    -0.20400
F3501       F  0.54669130  0.60025147  0.39071986    -0.20100
F3502       F  0.98433594  0.66980728  0.27342484    -0.20200
F3503       F  0.95700559  0.65615766  0.31876480    -0.20500
F3504       F  0.94686434  0.61944271  0.27716067    -0.23200
C3505       C  0.90551505  0.52354674  0.33560758    -0.06000
C3506       C  0.90503019  0.49687398  0.32293163    -0.00100
C3507       C  0.87355857  0.96427522  0.31193818    -0.08600
C3508       C  0.84740065  0.96417891  0.31713133    -0.06000
C3509       C  0.84929122  0.99199228  0.32867298    -0.00100
C3510       C  0.87850965  0.52228520  0.33910175    -0.08500
C3511       C  0.87933041  0.55100207  0.35417341     0.61800
H3512       H  0.92726440  0.54516483  0.34330568     0.12500
H3513       H  0.82533300  0.94231675  0.31297182     0.12500
C3514       C  0.87148534  0.93411707  0.29954046     0.62100
F3515       F  0.90846353  0.57760859  0.35823407    -0.23100
F3516       F  0.86911011  0.54483744  0.38648134    -0.20400
F3517       F  0.86086868  0.55780299  0.33220750    -0.20100
F3518       F  0.88899182  0.92732413  0.32318489    -0.20200
F3519       F  0.88202795  0.93813290  0.26749135    -0.20500
F3520       F  0.84185947  0.90835559  0.29600055    -0.23200
C3521       C  0.65078245  0.49642011  0.37396147    -0.06000
C3522       C  0.64431999  0.47506933  0.34568888    -0.00100
C3523       C  0.61567818  0.96063599  0.31793329    -0.08600
C3524       C  0.59516261  0.97004383  0.32259172    -0.06000
C3525       C  0.60179118  0.99328263  0.34856021    -0.00100
C3526       C  0.63148549  0.50748915  0.37896692    -0.08500
C3527       C  0.63956681  0.53121028  0.40911615     0.61800
H3528       H  0.67197114  0.50585180  0.39104880     0.12500
H3529       H  0.57351480  0.95900879  0.30605364     0.12500
C3530       C  0.60722263  0.93474886  0.29021802     0.62100
F3531       F  0.66827731  0.54189623  0.42653901    -0.23100
F3532       F  0.61885020  0.51722580  0.43278909    -0.20400
F3533       F  0.63911036  0.55722370  0.39681393    -0.20100
F3534       F  0.61678669  0.91479217  0.30263502    -0.20200
F3535       F  0.62078775  0.94817481  0.26084957    -0.20500
F3536       F  0.57606045  0.91651318  0.28070205    -0.23200
C3537       C  0.01894083  0.47919165  0.19299280    -0.06000
C3538       C  0.52917066  0.50511277  0.20963505    -0.00100
C3539       C  0.55085639  0.02970106  0.19027292    -0.08600
C3540       C  0.55146170  0.02613097  0.15439076    -0.06000
C3541       C  0.53049982  0.99773688  0.13417718    -0.00100
C3542       C  0.01962621  0.47494695  0.15703664    -0.08500
C3543       C  0.00562162  0.44160919  0.14078530     0.61800
H3544       H  0.00798053  0.45870154  0.20835400     0.12500
H3545       H  0.56782689  0.04640487  0.14163655     0.12500
C3546       C  0.57353998  0.06118730  0.21022838     0.62100
F3547       F  0.98129395  0.91565693  0.16016804    -0.23100
F3548       F  0.01222146  0.93252974  0.11885401    -0.20400
F3549       F  0.98022308  0.43394170  0.11755076    -0.20100
F3550       F  0.58750427  0.05616789  0.23994919    -0.20200
F3551       F  0.58657726  0.56660752  0.23185893    -0.20500
F3552       F  0.60993991  0.55555713  0.19396202    -0.23200
loop_ 
_geom_bond_atom_site_label_1 
_geom_bond_atom_site_label_2 
_geom_bond_distance 
_geom_bond_site_symmetry_2 
_ccdc_geom_bond_type 
O1           Ni7   1.955       .  S
O1         C1798   1.281   1_455  A
O2          Ni25   1.921       .  S
O2          C899   1.271       .  A
O3           H26   0.966       .  S
O3         Ni895   1.910   1_545  S
O3         Ni913   1.916       .  S
O3        Ni1795   1.904   1_455  S
C4           O13   1.275       .  A
C4          O909   1.273   1_565  A
C4          C842   1.448       .  S
O5          Ni24   1.930       .  S
O5         C1787   1.274       .  A
O6          Ni24   1.929       .  S
O6            C8   1.273       .  A
Ni7          O10   1.927       .  S
Ni7          O12   1.927       .  S
Ni7         O891   1.906       .  S
C8           O18   1.282       .  A
C8         C2605   1.517       .  S
O9         Ni913   1.894       .  S
O9          C903   1.272   1_545  A
O10          C15   1.278       .  A
C11         O890   1.270   1_545  A
C11        O1781   1.272       .  A
C11         C874   1.486       .  S
O12          C14   1.276       .  A
O13         Ni24   1.910   1_565  S
C14          O20   1.281       .  A
C14         C810   1.518       .  S
C15         O897   1.272       .  A
C15         C861   1.457       .  S
H16          O17   0.966       .  S
O17       Ni1801   1.909       .  S
O17        Ni907   1.895       .  S
O17        Ni912   1.902       .  S
O18         Ni19   1.962       .  S
Ni19         O23   1.911       .  S
Ni19        O909   1.892       .  S
Ni19       O1779   1.902       .  S
Ni19        O905   1.897   1_545  S
O20         Ni25   1.959       .  S
O21        Ni907   1.900       .  S
O21         C892   1.273       .  A
C22        O1777   1.279       .  A
C22         O911   1.270       .  A
C22         C797   1.505       .  S
O23         C910   1.269       .  A
Ni24        O905   1.904   1_545  S
Ni25        O897   1.893       .  S
Ni25        O891   1.910       .  S
Ni25       O1793   1.899   1_455  S
O27         Ni33   1.935       .  S
O27        C1824   1.273       .  A
O28         Ni51   1.929       .  S
O28          C37   1.275       .  A
O29          H52   0.966       .  S
O29         Ni33   1.912       .  S
O29         Ni51   1.915       .  S
O29       Ni1821   1.901   1_455  S
C30          O47   1.277       .  A
C30          O39   1.276       .  A
C30         C749   1.437       .  S
O31       Ni1826   1.935   1_455  S
O31          C37   1.272       .  A
O32         Ni50   1.930       .  S
O32        C1810   1.274       .  A
Ni33         O36   1.905       .  S
Ni33         O38   1.922       .  S
C34          O44   1.282       .  A
C34        O1808   1.273   1_455  A
C34         C813   1.524       .  S
O35         Ni51   1.890       .  S
O35          C41   1.269       .  A
O36          C41   1.274       .  A
C37         C781   1.510       .  S
O38          C40   1.274       .  A
O39         Ni50   1.899       .  S
C40          O46   1.284       .  A
C40         C826   1.516       .  S
C41         C762   1.464       .  S
H42          O43   0.967       .  S
O43         Ni45   1.903       .  S
O43         Ni50   1.895       .  S
O43       Ni1827   1.890       .  S
O44       Ni1821   1.962   1_455  S
Ni45         O49   1.934       .  S
Ni45         O47   1.902       .  S
Ni45       O1820   1.958       .  S
Ni45       O1805   1.904       .  S
O46         Ni51   1.976       .  S
C48          O49   1.273       .  A
C48        O1803   1.272       .  A
C48         C730   1.509       .  S
Ni50       O1807   1.936       .  S
Ni51       O1819   1.891   1_455  S
O53         Ni59   1.932       .  S
O53          C74   1.276       .  A
O54         Ni77   1.890       .  S
O54         C951   1.263       .  A
O55          H78   0.966   1_565  S
O55         Ni71   1.896       .  S
O55        Ni947   1.885       .  S
O55        Ni965   1.881       .  S
C56          O65   1.275       .  A
C56         O961   1.275       .  A
C56         C858   1.459       .  S
O57         Ni76   1.914       .  S
O57          C63   1.270       .  A
O58         Ni76   1.925   1_545  S
O58          C60   1.271       .  A
Ni59         O62   1.919       .  S
Ni59         O64   1.919       .  S
Ni59        O943   1.892       .  S
C60          O70   1.276       .  A
C60         C701   1.508       .  S
O61        Ni965   1.897       .  S
O61         C955   1.275       .  A
O62          C67   1.280       .  A
C63         O942   1.264       .  A
C63         C717   1.449       .  S
O64          C66   1.271       .  A
O65         Ni76   1.908       .  S
C66          O72   1.280       .  A
C66         C685   1.515       .  S
C67         O949   1.271       .  A
C67         C845   1.464       .  S
H68          O69   0.966       .  S
O69         Ni77   1.906       .  S
O69        Ni959   1.887       .  S
O69        Ni964   1.898       .  S
O70         Ni71   1.951   1_545  S
Ni71         O75   1.884   1_565  S
Ni71        O961   1.908       .  S
Ni71        O957   1.890       .  S
O72         Ni77   1.953       .  S
O73        Ni959   1.912       .  S
O73         C944   1.278       .  A
C74         O963   1.265       .  A
C74         C666   1.471       .  S
O75         C962   1.264   1_545  A
Ni76        O957   1.901       .  S
Ni77        O949   1.895       .  S
Ni77        O943   1.885       .  S
O79         Ni85   1.929       .  S
O79         C100   1.270       .  A
O80        Ni103   1.926       .  S
O80          C89   1.271       .  A
O81         H104   0.966       .  S
O81         Ni85   1.909       .  S
O81        Ni103   1.912       .  S
O81         Ni97   1.895       .  S
C82          O99   1.270       .  A
C82          O91   1.277       .  A
C82         C765   1.469       .  S
O83        Ni102   1.938       .  S
O83          C89   1.273       .  A
O84        Ni102   1.915       .  S
O84          C86   1.270       .  A
Ni85         O88   1.900       .  S
Ni85         O90   1.923       .  S
C86          O96   1.283       .  A
C86         C682   1.522       .  S
O87        Ni103   1.894       .  S
O87          C93   1.271       .  A
O88          C93   1.273       .  A
C89         C650   1.496       .  S
O90          C92   1.272       .  A
O91        Ni102   1.906       .  S
C92          O98   1.278       .  A
C92         C698   1.505       .  S
C93         C746   1.438       .  S
H94          O95   0.966       .  S
O95        Ni103   1.897       .  S
O95         Ni97   1.917       .  S
O95        Ni102   1.903       .  S
O96         Ni97   1.966       .  S
Ni97        O101   1.929       .  S
Ni97         O99   1.892       .  S
O98        Ni103   1.952       .  S
C100        O101   1.271       .  A
C100        C637   1.496       .  S
O105       Ni111   1.917       .  S
O105       C1014   1.268   1_545  A
O106       Ni129   1.915       .  S
O106        C115   1.270   1_545  A
O107       H1906   0.966   1_455  S
O107       Ni111   1.898       .  S
O107       Ni129   1.904   1_554  S
O107      Ni1011   1.909   1_545  S
C108        O125   1.275       .  A
C108        O117   1.277   1_554  A
C108        C586   1.465       .  S
O109       Ni128   1.923       .  S
O109       C2779   1.268       .  A
O110       Ni128   1.913       .  S
O110        C112   1.267       .  A
Ni111       O114   1.905       .  S
Ni111       O116   1.910       .  S
C112        O122   1.285   1_556  A
C112        C554   1.516       .  S
O113       Ni129   1.926       .  S
O113        C119   1.279       .  A
O114        C119   1.277   1_554  A
C115       O2773   1.272   1_455  A
C115       C1506   1.488   1_565  S
O116        C118   1.265       .  A
O117      Ni1904   1.915       .  S
C118        O124   1.278   1_554  A
C118        C570   1.505       .  S
C119        C602   1.459       .  S
H120        O121   0.966       .  S
O121       Ni123   1.916   1_556  S
O121      Ni1017   1.917       .  S
O121      Ni1904   1.901       .  S
O122      Ni1899   1.969       .  S
Ni123       O127   1.934       .  S
Ni123       O125   1.909       .  S
Ni123      O1898   1.976   1_455  S
Ni123       O995   1.915       .  S
O124       Ni129   1.949       .  S
C126        O127   1.274       .  A
C126        O993   1.267       .  A
C126        C877   1.502       .  S
Ni128      O1893   1.911       .  S
Ni128      O1897   1.896       .  S
Ni129      O1009   1.912   1_545  S
H130       O1883   0.966       .  S
O131       Ni137   1.918   1_655  S
O131       C1928   1.266       .  A
O132       Ni155   1.941       .  S
O132        C141   1.275       .  A
O133        H156   0.966       .  S
O133       Ni137   1.897       .  S
O133       Ni155   1.920   1_556  S
O133      Ni1925   1.924   1_455  S
C134        O151   1.281   1_554  A
C134        O143   1.276       .  A
C134        C509   1.500       .  S
O135      Ni1930   1.916   1_455  S
O135        C141   1.266       .  A
O136       Ni154   1.909       .  S
O136       C1914   1.269       .  A
Ni137       O140   1.908       .  S
Ni137       O142   1.900       .  S
C138        O148   1.265   1_554  A
C138       O1912   1.269       .  A
C138        C605   1.462   1_554  S
O139       Ni155   1.950       .  S
O139        C145   1.288   1_554  A
O140        C145   1.273       .  A
C141        C778   1.510       .  S
O142        C144   1.267   1_556  A
O143       Ni154   1.907       .  S
C144        O150   1.263       .  A
C144        C589   1.457       .  S
C145        C525   1.498       .  S
H146        O147   0.966       .  S
O147       Ni149   1.919   1_554  S
O147       Ni154   1.907       .  S
O147      Ni1931   1.930       .  S
O148      Ni1925   1.909       .  S
Ni149       O153   1.928       .  S
Ni149       O151   1.944       .  S
Ni149      O1924   1.914       .  S
Ni149      O1909   1.918       .  S
O150       Ni155   1.903       .  S
C152        O153   1.271       .  A
C152       O1907   1.271       .  A
C152        C538   1.499       .  S
Ni154      O1911   1.916       .  S
Ni155      O1923   1.933   1_455  S
O157       Ni163   1.927       .  S
O157       C1066   1.269   1_545  A
O158       Ni181   1.898       .  S
O158        C167   1.264   1_545  A
O159        H182   0.966       .  S
O159       Ni163   1.913   1_565  S
O159       Ni181   1.915   1_564  S
O159      Ni1063   1.901       .  S
C160        O177   1.258       .  A
C160        O169   1.271   1_554  A
C160        C461   1.443       .  S
O161       Ni180   1.918       .  S
O161       C1055   1.267       .  A
O162       Ni180   1.907       .  S
O162        C164   1.270       .  A
Ni163       O166   1.911       .  S
Ni163       O168   1.907       .  S
C164        O174   1.272   1_556  A
C164        C522   1.484       .  S
O165       Ni181   1.880       .  S
O165        C171   1.261       .  A
O166        C171   1.271   1_554  A
C167       O1049   1.266       .  A
C167       C1378   1.477       .  S
O168        C170   1.270       .  A
O169       Ni180   1.913       .  S
C170        O176   1.275   1_554  A
C170        C506   1.490       .  S
C171        C474   1.443       .  S
H172        O173   0.966       .  S
O173       Ni175   1.906   1_556  S
O173       Ni180   1.915       .  S
O173      Ni1069   1.899       .  S
O174       Ni175   1.943       .  S
Ni175       O179   1.887       .  S
Ni175       O177   1.875       .  S
Ni175      O1047   1.904       .  S
O176       Ni181   1.951       .  S
C178        O179   1.258       .  A
C178       O1045   1.266       .  A
C178       C1602   1.465       .  S
Ni181      O1061   1.890   1_545  S
O183       Ni189   1.901       .  S
O183        C204   1.266       .  A
O184       Ni207   1.945       .  S
O184        C193   1.278       .  A
O185        H208   0.966       .  S
O185       Ni189   1.893       .  S
O185       Ni207   1.898   1_554  S
O185       Ni201   1.920       .  S
C186        O203   1.284   1_556  A
C186        O195   1.275       .  A
C186        C477   1.452       .  S
O187       Ni206   1.909       .  S
O187        C193   1.264       .  A
O188       Ni206   1.909       .  S
O188        C190   1.266       .  A
Ni189       O192   1.901       .  S
Ni189       O194   1.911       .  S
C190        O200   1.282   1_556  A
C190        C573   1.517       .  S
O191       Ni207   1.899       .  S
O191        C197   1.282   1_556  A
O192        C197   1.275       .  A
C193        C442   1.503       .  S
O194        C196   1.268       .  A
O195       Ni206   1.897       .  S
C196        O202   1.283   1_554  A
C196        C557   1.525       .  S
C197        C458   1.447       .  S
H198        O199   0.966       .  S
O199       Ni207   1.914       .  S
O199       Ni201   1.905   1_556  S
O199       Ni206   1.891       .  S
O200       Ni201   1.956       .  S
Ni201       O205   1.948       .  S
Ni201       O203   1.912       .  S
O202       Ni207   1.965       .  S
C204        O205   1.275       .  A
C204        C653   1.504       .  S
O209       Ni215   1.902   1_655  S
O209       C2006   1.264       .  A
O210       Ni233   1.922       .  S
O210       C1107   1.274       .  A
O211        H234   0.966       .  S
O211      Ni1103   1.887   1_655  S
O211      Ni1121   1.897   1_655  S
O211      Ni2003   1.964       .  S
C212        O229   1.299       .  A
C212       O1109   1.281       .  A
C212       C1298   1.536       .  S
O213       Ni232   1.916       .  S
O213       C1995   1.269       .  A
O214       Ni232   1.909       .  S
O214        C216   1.269       .  A
Ni215       O218   1.931       .  S
Ni215       O220   1.901       .  S
Ni215      O1099   1.888   1_455  S
C216        O226   1.281       .  A
C216        C381   1.508       .  S
O217      Ni1121   1.988       .  S
O217       C1111   1.296       .  A
O218        C223   1.283       .  A
C219       O1098   1.275       .  A
C219       O1989   1.270   1_455  A
C219        C621   1.478       .  S
O220        C222   1.265       .  A
O221       Ni232   1.923       .  S
O221       C1100   1.281       .  A
C222        O228   1.283       .  A
C222        C397   1.519       .  S
C223       O1105   1.294       .  A
C223       C1314   1.528   1_545  S
H224        O225   0.966       .  S
O225      Ni2009   1.961       .  S
O225      Ni1115   1.912       .  S
O225      Ni1120   1.897       .  S
O226       Ni227   1.966       .  S
Ni227       O231   1.948       .  S
Ni227      O1117   2.006       .  S
Ni227      O1987   1.964       .  S
Ni227      O1113   1.908       .  S
O228       Ni233   1.966       .  S
O229      Ni1115   1.998       .  S
C230       O1985   1.266       .  A
C230       O1119   1.281       .  A
C230        C794   1.493       .  S
O231       C1118   1.280       .  A
Ni232      O1113   1.892       .  S
Ni233      O1105   1.982       .  S
Ni233      O1099   1.896   1_455  S
Ni233      O2001   1.960   1_455  S
O235       Ni241   1.930   1_655  S
O235       C2032   1.271       .  A
O236       Ni259   1.954       .  S
O236       C2021   1.277       .  A
O237       H2036   0.966       .  S
O237       Ni241   1.904       .  S
O237       Ni259   1.914       .  S
O237      Ni2029   1.908   1_455  S
C238        O255   1.277       .  A
C238        O247   1.276       .  A
C238        C317   1.471       .  S
O239       Ni258   1.915       .  S
O239        C245   1.268       .  A
O240       Ni258   1.919       .  S
O240        C242   1.272       .  A
Ni241       O244   1.908       .  S
Ni241       O246   1.906       .  S
C242        O252   1.281       .  A
C242        C349   1.515       .  S
O243       Ni259   1.906       .  S
O243        C249   1.279       .  A
O244        C249   1.278       .  A
C245       O2012   1.275       .  A
C245        C733   1.503       .  S
O246        C248   1.269       .  A
O247       Ni258   1.895       .  S
C248        O254   1.283       .  A
C248        C362   1.513       .  S
C249        C330   1.454       .  S
H250        O251   0.966       .  S
O251       Ni253   1.906       .  S
O251       Ni258   1.897       .  S
O251      Ni2035   1.904       .  S
O252       Ni253   1.958       .  S
Ni253       O257   1.941       .  S
Ni253       O255   1.911       .  S
Ni253      O2013   1.907       .  S
O254       Ni259   1.962       .  S
C256        O257   1.278       .  A
C256       O2011   1.272       .  A
C256        C541   1.500       .  S
Ni259      O2027   1.911   1_455  S
H260       O2013   0.966       .  S
O261       Ni267   1.934       .  S
O261       C1170   1.275       .  A
O262       Ni285   1.893       .  S
O262        C271   1.264   1_545  A
O263        H286   0.966       .  S
O263       Ni267   1.887       .  S
O263       Ni285   1.897       .  S
O263      Ni1167   1.879   1_545  S
C264        O281   1.265       .  A
C264        O273   1.277       .  A
C264        C333   1.444       .  S
O265       Ni284   1.921       .  S
O265       C1159   1.268       .  A
O266       Ni284   1.915       .  S
O266        C268   1.267       .  A
Ni267       O270   1.902       .  S
Ni267       O272   1.939       .  S
C268        O278   1.281       .  A
C268        C429   1.531       .  S
O269       Ni285   1.891       .  S
O269        C275   1.271       .  A
O270        C275   1.282       .  A
C271       O1153   1.267       .  A
C271       C1557   1.458       .  S
O272       C1162   1.272       .  A
O273       Ni284   1.903       .  S
C274        O280   1.281       .  A
C274       O1160   1.273       .  A
C274        C413   1.548       .  S
C275        C314   1.467       .  S
H276        O277   0.966       .  S
O277       Ni279   1.906       .  S
O277       Ni284   1.894       .  S
O277      Ni1173   1.889       .  S
O278       Ni279   1.977       .  S
Ni279       O283   1.889       .  S
Ni279       O281   1.879       .  S
Ni279      O1151   1.876       .  S
O280      Ni1173   1.974       .  S
C282        O283   1.261       .  A
C282       O1149   1.274       .  A
C282        C493   1.469       .  S
Ni285      O1168   1.976       .  S
Ni285      O1165   1.892   1_545  S
O287       Ni293   1.943       .  S
O287        C308   1.275       .  A
O288       Ni311   1.944       .  S
O288        C297   1.281       .  A
O289        H312   0.966       .  S
O289       Ni293   1.901       .  S
O289       Ni311   1.918       .  S
O289       Ni305   1.936       .  S
C290        O307   1.285       .  A
C290        O299   1.282       .  A
C290        C346   1.510       .  S
O291       Ni310   1.927       .  S
O291        C297   1.269       .  A
O292       Ni310   1.910       .  S
O292        C294   1.268       .  A
Ni293       O296   1.930       .  S
Ni293       O298   1.906       .  S
C294        O304   1.280       .  A
C294        C378   1.496       .  S
O295       Ni311   1.955       .  S
O295        C301   1.287       .  A
O296        C301   1.280       .  A
C297        C445   1.515       .  S
O298        C300   1.273       .  A
O299       Ni310   1.934       .  S
C300        O306   1.282       .  A
C300        C394   1.508       .  S
C301        C365   1.522       .  S
H302        O303   0.966       .  S
O303       Ni311   1.944       .  S
O303       Ni305   1.906       .  S
O303       Ni310   1.902       .  S
O304       Ni305   1.958       .  S
Ni305       O309   1.923       .  S
Ni305       O307   1.952       .  S
O306       Ni311   1.964       .  S
C308        O309   1.273       .  A
C308        C634   1.498       .  S
C313        C314   1.393       .  A
C313        C318   1.398       .  A
C313        H320   1.083       .  S
C314        C315   1.401       .  A
C315        C316   1.393       .  A
C315        C322   1.511       .  S
C316        C317   1.413       .  A
C316        H321   1.084       .  S
C317        C318   1.430       .  A
C318        C319   1.523       .  S
C319        F323   1.385       .  S
C319        F324   1.374       .  S
C319        F325   1.383       .  S
C322        F326   1.384       .  S
C322        F327   1.383       .  S
C322        F328   1.383       .  S
C329        C330   1.406       .  A
C329        C334   1.397       .  A
C329        H336   1.084       .  S
C330        C331   1.423       .  A
C331        C332   1.386       .  A
C331        C338   1.519       .  S
C332        C333   1.391       .  A
C332        H337   1.087       .  S
C333        C334   1.408       .  A
C334        C335   1.517       .  S
C335        F339   1.384       .  S
C335        F340   1.382       .  S
C335        F341   1.384       .  S
C338        F342   1.368       .  S
C338        F343   1.383       .  S
C338        F344   1.383       .  S
C345        C346   1.412       .  A
C345        C350   1.417       .  A
C345        H352   1.083       .  S
C346        C347   1.420       .  A
C347        C348   1.418       .  A
C347        C354   1.519       .  S
C348        C349   1.415       .  A
C348        H353   1.082       .  S
C349        C350   1.419       .  A
C350        C351   1.515       .  S
C351        F355   1.385       .  S
C351        F356   1.383       .  S
C351        F357   1.377       .  S
C354        F358   1.383       .  S
C354        F359   1.383       .  S
C354        F360   1.385       .  S
C361        C362   1.416       .  A
C361        C366   1.420       .  A
C361        H368   1.082       .  S
C362        C363   1.414       .  A
C363        C364   1.417       .  A
C363        C370   1.517       .  S
C364        C365   1.419       .  A
C364        H369   1.082       .  S
C365        C366   1.423       .  A
C366        C367   1.520       .  S
C367        F371   1.385       .  S
C367        F372   1.383       .  S
C367        F373   1.383       .  S
C370        F374   1.379       .  S
C370        F375   1.383       .  S
C370        F376   1.384       .  S
C377        C378   1.410       .  A
C377        C382   1.422       .  A
C377        H384   1.083       .  S
C378        C379   1.413       .  A
C379        C380   1.414       .  A
C379        C386   1.517       .  S
C380        C381   1.413       .  A
C380        H385   1.083       .  S
C381        C382   1.420       .  A
C382        C383   1.516       .  S
C383        F387   1.385       .  S
C383        F388   1.384       .  S
C383        F389   1.381       .  S
C386        F390   1.383       .  S
C386        F391   1.383       .  S
C386        F392   1.384       .  S
C393        C394   1.399       .  A
C393        C398   1.408       .  A
C393        H400   1.083       .  S
C394        C395   1.426       .  A
C395        C396   1.425       .  A
C395        C402   1.515       .  S
C396        C397   1.410       .  A
C396        H401   1.082       .  S
C397        C398   1.436       .  A
C398        C399   1.525       .  S
C399        F403   1.385       .  S
C399        F404   1.383       .  S
C399        F405   1.381       .  S
C402        F406   1.377       .  S
C402        F407   1.383       .  S
C402        F408   1.385       .  S
C409        C414   1.425       .  A
C409       C1298   1.410       .  A
C409        H416   1.083       .  S
C410       C1100   1.544       .  S
C410        C411   1.428       .  A
C410       C1297   1.414       .  A
C411        C412   1.438       .  A
C411        C418   1.516       .  S
C412        C413   1.421       .  A
C412        H417   1.082       .  S
C413       C1302   1.433       .  A
C414       C1301   1.437       .  A
C414        C415   1.523       .  S
C415        F419   1.385       .  S
C415        F420   1.383       .  S
C415       F1309   1.384       .  S
C418        F423   1.383       .  S
C418        F424   1.385       .  S
C418       F1310   1.384       .  S
F421       C1303   1.383       .  S
F422       C1306   1.382       .  S
C425        C426   1.407       .  A
C425        C430   1.416       .  A
C425        H432   1.082       .  S
C426       C1111   1.526       .  S
C426       C1315   1.426       .  A
C427        C428   1.432       .  A
C427       C1314   1.427   1_545  A
C427        C434   1.516       .  S
C428       C1317   1.416   1_545  A
C428        H433   1.082       .  S
C429        C430   1.434       .  A
C429       C1316   1.415       .  A
C430        C431   1.524       .  S
C431        F435   1.385       .  S
C431        F436   1.383       .  S
C431        F437   1.383       .  S
C434        F438   1.383       .  S
C434        F439   1.382       .  S
C434        F440   1.384       .  S
C441        C442   1.400       .  A
C441        C446   1.413       .  A
C441        H448   1.082       .  S
C442        C443   1.425       .  A
C443        C444   1.416       .  A
C443        C450   1.519       .  S
C444        C445   1.408       .  A
C444        H449   1.082       .  S
C445        C446   1.435       .  A
C446        C447   1.523       .  S
C447        F451   1.385       .  S
C447        F452   1.383       .  S
C447        F453   1.383       .  S
C450        F454   1.384       .  S
C450        F455   1.381       .  S
C450        F456   1.385       .  S
C457        C458   1.399       .  A
C457        C462   1.386       .  A
C457        H464   1.086   1_554  S
C458        C459   1.414       .  A
C459        C460   1.400       .  A
C459        C466   1.520       .  S
C460        C461   1.401       .  A
C460        H465   1.084       .  S
C461        C462   1.407       .  A
C462        C463   1.515   1_554  S
C463        F467   1.384       .  S
C463        F468   1.384       .  S
C463        F469   1.383       .  S
C466        F470   1.383       .  S
C466        F471   1.384       .  S
C466        F472   1.385       .  S
C473        C474   1.402       .  A
C473        C478   1.400       .  A
C473        H480   1.084       .  S
C474        C475   1.406       .  A
C475        C476   1.388       .  A
C475        C482   1.515   1_556  S
C476        C477   1.403       .  A
C476        H481   1.085   1_556  S
C477        C478   1.413       .  A
C478        C479   1.518       .  S
C479        F483   1.385       .  S
C479        F484   1.383       .  S
C479        F485   1.382       .  S
C482        F486   1.383       .  S
C482        F487   1.384       .  S
C482        F488   1.384       .  S
C489        C494   1.404       .  A
C489       C1378   1.406   1_545  A
C489        H496   1.083       .  S
C490       C1055   1.463       .  S
C490        C491   1.415       .  A
C490       C1377   1.399       .  A
C491        C492   1.399       .  A
C491        C498   1.521       .  S
C492        C493   1.401       .  A
C492        H497   1.083       .  S
C493       C1382   1.420       .  A
C494       C1381   1.412       .  A
C494        C495   1.518       .  S
C495        F499   1.385       .  S
C495        F500   1.383       .  S
C495        F501   1.383       .  S
C498        F502   1.382       .  S
C498        F503   1.384       .  S
C498        F504   1.385       .  S
C505        C506   1.410   1_556  A
C505        C510   1.420       .  A
C505        H512   1.083       .  S
C506        C507   1.414       .  A
C507        C508   1.398       .  A
C507        C514   1.518       .  S
C508        C509   1.408       .  A
C508        H513   1.081       .  S
C509        C510   1.421   1_554  A
C510        C511   1.517       .  S
C511        F515   1.383       .  S
C511        F516   1.383       .  S
C511        F517   1.383       .  S
C514        F518   1.384       .  S
C514        F519   1.378       .  S
C514        F520   1.385       .  S
C521        C522   1.394       .  A
C521        C526   1.402       .  A
C521        H528   1.084       .  S
C522        C523   1.420   1_556  A
C523        C524   1.415       .  A
C523        C530   1.516       .  S
C524        C525   1.406   1_554  A
C524        H529   1.083       .  S
C525        C526   1.433       .  A
C526        C527   1.524       .  S
C527        F531   1.385       .  S
C527        F532   1.379       .  S
C527        F533   1.383       .  S
C530        F534   1.383       .  S
C530        F535   1.382       .  S
C530        F536   1.384       .  S
C537        C538   1.407       .  A
C537        C542   1.413       .  A
C537        H544   1.083       .  S
C538       C2315   1.421       .  A
C539        C540   1.415       .  A
C539       C2314   1.420       .  A
C539        C546   1.518       .  S
C540       C2317   1.408       .  A
C540        H545   1.083       .  S
C541        C542   1.419       .  A
C541       C2316   1.408       .  A
C542        C543   1.513       .  S
C543        F547   1.385       .  S
C543        F548   1.383       .  S
C543        F549   1.382       .  S
C546        F550   1.384       .  S
C546        F551   1.383   1_655  S
C546        F552   1.385       .  S
C553        C554   1.405   1_554  A
C553        C558   1.418       .  A
C553        H560   1.083       .  S
C554        C555   1.427       .  A
C555        C556   1.423       .  A
C555        C562   1.519       .  S
C556        C557   1.412   1_556  A
C556        H561   1.082       .  S
C557        C558   1.433       .  A
C558        C559   1.521       .  S
C559        F563   1.385       .  S
C559        F564   1.384       .  S
C559        F565   1.383       .  S
C562        F566   1.382       .  S
C562        F567   1.383       .  S
C562        F568   1.385       .  S
C569        C570   1.402   1_556  A
C569        C574   1.414       .  A
C569        H576   1.082       .  S
C570        C571   1.422       .  A
C571        C572   1.418       .  A
C571        C578   1.519       .  S
C572        C573   1.411   1_554  A
C572        H577   1.082       .  S
C573        C574   1.433       .  A
C574        C575   1.522       .  S
C575        F579   1.385       .  S
C575        F580   1.383       .  S
C575        F581   1.383       .  S
C578        F582   1.384       .  S
C578        F583   1.382       .  S
C578        F584   1.383       .  S
C585        C590   1.404       .  A
C585       C2362   1.404       .  A
C585        H592   1.084       .  S
C586        C587   1.412       .  A
C586       C2361   1.407   1_455  A
C587        C588   1.404       .  A
C587        C594   1.517       .  S
C588        C589   1.405       .  A
C588        H593   1.084       .  S
C589       C2366   1.405   1_455  A
C590       C2365   1.409       .  A
C590        C591   1.515       .  S
C591        F595   1.385       .  S
C591        F596   1.383       .  S
C591        F597   1.383   1_554  S
C594        F598   1.382       .  S
C594        F599   1.383       .  S
C594        F600   1.385       .  S
C601        C606   1.400       .  A
C601       C2378   1.397       .  A
C601        H608   1.084       .  S
C602        C603   1.415       .  A
C602       C2377   1.395   1_455  A
C603        C604   1.403       .  A
C603        C610   1.512       .  S
C604        C605   1.398   1_455  A
C604        H609   1.084       .  S
C605       C2382   1.415       .  A
C606       C2381   1.414       .  A
C606        C607   1.513       .  S
C607        F611   1.385       .  S
C607        F612   1.383       .  S
C607        F613   1.379   1_556  S
C610        F614   1.382       .  S
C610        F615   1.381   1_556  S
C610        F616   1.384       .  S
C617        C622   1.410       .  A
C617       C1506   1.406       .  A
C617        H624   1.083       .  S
C618       C1003   1.481       .  S
C618       C1505   1.401       .  A
C618       C2395   1.418       .  A
C619        C620   1.405       .  A
C619       C2394   1.425       .  A
C619        C626   1.522       .  S
C620       C2397   1.399       .  A
C620        H625   1.084       .  S
C621       C2396   1.401       .  A
C621       C1510   1.417       .  A
C622       C1509   1.414       .  A
C622        C623   1.516       .  S
C623        F627   1.384       .  S
C623        F628   1.383       .  S
C623        F629   1.383       .  S
C626        F630   1.383       .  S
C626        F631   1.384       .  S
C626        F632   1.385       .  S
C633        C634   1.407       .  A
C633        C638   1.413       .  A
C633        H640   1.083       .  S
C634        C635   1.420       .  A
C635        C636   1.415       .  A
C635        C642   1.518       .  S
C636        C637   1.407       .  A
C636        H641   1.083       .  S
C637        C638   1.420       .  A
C638        C639   1.519       .  S
C639        F643   1.384       .  S
C639        F644   1.383       .  S
C639        F645   1.384       .  S
C642        F646   1.383       .  S
C642        F647   1.383       .  S
C642        F648   1.384       .  S
C649        C650   1.408       .  A
C649        C654   1.420       .  A
C649        H656   1.083       .  S
C650        C651   1.419       .  A
C651        C652   1.408       .  A
C651        C658   1.522       .  S
C652        C653   1.409       .  A
C652        H657   1.082       .  S
C653        C654   1.420       .  A
C654        C655   1.515       .  S
C655        F659   1.385       .  S
C655        F660   1.384       .  S
C655        F661   1.381       .  S
C658        F662   1.384       .  S
C658        F663   1.381       .  S
C658        F664   1.385       .  S
C665        C666   1.403       .  A
C665        C670   1.401       .  A
C665        H672   1.083       .  S
C666       C1555   1.421       .  A
C667        C668   1.402       .  A
C667       C1554   1.423   1_545  A
C667        C674   1.521       .  S
C668       C1557   1.395   1_545  A
C668        H673   1.081       .  S
C669       C1159   1.461       .  S
C669        C670   1.413       .  A
C669       C1556   1.397       .  A
C670        C671   1.519       .  S
C671        F675   1.384       .  S
C671        F676   1.382       .  S
C671        F677   1.384       .  S
C674        F678   1.383       .  S
C674        F679   1.383       .  S
C674        F680   1.385       .  S
C681        C682   1.411       .  A
C681        C686   1.419       .  A
C681        H688   1.077       .  S
C682        C683   1.428       .  A
C683        C684   1.420       .  A
C683        C690   1.520       .  S
C684        C685   1.410       .  A
C684        H689   1.083       .  S
C685        C686   1.423       .  A
C686        C687   1.520       .  S
C687        F691   1.385       .  S
C687        F692   1.384       .  S
C687        F693   1.382       .  S
C690        F694   1.383       .  S
C690        F695   1.384       .  S
C690        F696   1.385       .  S
C697        C698   1.411       .  A
C697        C702   1.418       .  A
C697        H704   1.083       .  S
C698        C699   1.418       .  A
C699        C700   1.418       .  A
C699        C706   1.518       .  S
C700        C701   1.412       .  A
C700        H705   1.083       .  S
C701        C702   1.419       .  A
C702        C703   1.517       .  S
C703        F707   1.385       .  S
C703        F708   1.383       .  S
C703        F709   1.381       .  S
C706        F710   1.381       .  S
C706        F711   1.384       .  S
C706        F712   1.384       .  S
C713        C718   1.402       .  A
C713       C1602   1.403       .  A
C713        H720   1.083       .  S
C714       C1066   1.462       .  S
C714        C715   1.415   1_565  A
C714       C1601   1.403       .  A
C715        C716   1.397   1_545  A
C715        C722   1.513       .  S
C716        C717   1.395       .  A
C716        H721   1.084   1_565  S
C717       C1606   1.410       .  A
C718       C1605   1.410       .  A
C718        C719   1.517       .  S
C719        F723   1.384       .  S
C719        F724   1.383       .  S
C719        F725   1.383       .  S
C722        F726   1.381       .  S
C722        F727   1.383       .  S
C722        F728   1.385       .  S
C729        C734   1.415       .  A
C729       C2506   1.405       .  A
C729        H736   1.083       .  S
C730        C731   1.423       .  A
C730       C2505   1.410       .  A
C731        C732   1.418       .  A
C731        C738   1.519       .  S
C732        C733   1.411       .  A
C732        H737   1.083       .  S
C733       C2510   1.419       .  A
C734       C2509   1.422       .  A
C734        C735   1.514       .  S
C735        F739   1.385       .  S
C735        F740   1.379       .  S
C735        F741   1.383       .  S
C738        F742   1.383       .  S
C738        F743   1.382       .  S
C738        F744   1.385       .  S
C745        C746   1.400       .  A
C745        C750   1.395       .  A
C745        H752   1.084       .  S
C746        C747   1.408       .  A
C747        C748   1.392       .  A
C747        C754   1.518       .  S
C748        C749   1.399       .  A
C748        H753   1.084       .  S
C749        C750   1.408       .  A
C750        C751   1.519       .  S
C751        F755   1.385       .  S
C751        F756   1.383       .  S
C751        F757   1.382       .  S
C754        F758   1.382       .  S
C754        F759   1.383       .  S
C754        F760   1.385       .  S
C761        C762   1.403       .  A
C761        C766   1.396       .  A
C761        H768   1.083       .  S
C762        C763   1.419       .  A
C763        C764   1.394       .  A
C763        C770   1.523       .  S
C764        C765   1.404       .  A
C764        H769   1.083       .  S
C765        C766   1.419       .  A
C766        C767   1.522       .  S
C767        F771   1.385       .  S
C767        F772   1.377       .  S
C767        F773   1.383       .  S
C770        F774   1.383       .  S
C770        F775   1.380       .  S
C770        F776   1.385       .  S
C777        C782   1.414       .  A
C777       C2554   1.407       .  A
C777        H784   1.083       .  S
C778        C779   1.427       .  A
C778       C2553   1.407       .  A
C779        C780   1.414       .  A
C779        C786   1.520       .  S
C780        C781   1.407       .  A
C780        H785   1.083       .  S
C781       C2558   1.426       .  A
C782       C2557   1.426       .  A
C782        C783   1.520       .  S
C783        F787   1.385       .  S
C783        F788   1.384       .  S
C783        F789   1.383       .  S
C786        F790   1.384       .  S
C786        F791   1.383       .  S
C786        F792   1.385       .  S
C793        C798   1.419       .  A
C793       C2570   1.404       .  A
C793        H800   1.083       .  S
C794       C2569   1.403       .  A
C794       C1683   1.416   1_545  A
C795        C796   1.414       .  A
C795       C1682   1.415       .  A
C795        C802   1.516       .  S
C796        C797   1.410       .  A
C796        H801   1.083       .  S
C797       C3462   1.425       .  A
C798       C3461   1.430   1_545  A
C798        C799   1.519       .  S
C799        F803   1.385       .  S
C799        F804   1.383       .  S
C799        F805   1.382       .  S
C802        F806   1.383       .  S
C802        F807   1.383       .  S
C802        F808   1.384       .  S
C809        C810   1.414       .  A
C809        C814   1.422       .  A
C809        H816   1.083       .  S
C810       C2587   1.419   1_455  A
C811        C812   1.421       .  A
C811       C2586   1.416       .  A
C811        C818   1.518       .  S
C812       C2589   1.418       .  A
C812        H817   1.082       .  S
C813        C814   1.422       .  A
C813       C2588   1.417   1_455  A
C814        C815   1.518       .  S
C815        F819   1.385       .  S
C815        F820   1.384       .  S
C815        F821   1.382       .  S
C818        F822   1.383       .  S
C818        F823   1.384       .  S
C818        F824   1.384       .  S
C825        C826   1.413       .  A
C825        C830   1.424       .  A
C825        H832   1.083       .  S
C826       C2603   1.417   1_455  A
C827        C828   1.423       .  A
C827       C2602   1.415       .  A
C827        C834   1.516       .  S
C828       C2605   1.416       .  A
C828        H833   1.083       .  S
C829       C1784   1.522   1_455  S
C829        C830   1.422       .  A
C829       C2604   1.417   1_455  A
C830        C831   1.518       .  S
C831        F835   1.384       .  S
C831        F836   1.384       .  S
C831        F837   1.382       .  S
C834        F838   1.382       .  S
C834        F839   1.384       .  S
C834        F840   1.384       .  S
C841        C842   1.401   1_545  A
C841        C846   1.394       .  A
C841        H848   1.084       .  S
C842       C1731   1.409       .  A
C843        C844   1.396       .  A
C843       C1730   1.412       .  A
C843        C850   1.522       .  S
C844        C845   1.404       .  A
C844        H849   1.084       .  S
C845       C1734   1.417       .  A
C846       C1733   1.412   1_545  A
C846        C847   1.521       .  S
C847        F851   1.385       .  S
C847        F852   1.382       .  S
C847        F853   1.383       .  S
C850        F854   1.382       .  S
C850        F855   1.384       .  S
C850        F856   1.385       .  S
C857        C858   1.407   1_545  A
C857        C862   1.400       .  A
C857        H864   1.084       .  S
C858       C1747   1.411       .  A
C859        C860   1.400       .  A
C859       C1746   1.413       .  A
C859        C866   1.519       .  S
C860        C861   1.404       .  A
C860        H865   1.084       .  S
C861       C1750   1.405       .  A
C862       C1749   1.405   1_545  A
C862        C863   1.516       .  S
C863        F867   1.384       .  S
C863        F868   1.383       .  S
C863        F869   1.383       .  S
C866        F870   1.383       .  S
C866        F871   1.382       .  S
C866        F872   1.385       .  S
C873        C878   1.417       .  A
C873       C2650   1.405   1_565  A
C873        H880   1.083       .  S
C874       C2649   1.405   1_545  A
C874       C1763   1.412       .  A
C875        C876   1.405       .  A
C875       C1762   1.417       .  A
C875        C882   1.522       .  S
C876        C877   1.412       .  A
C876        H881   1.082       .  S
C877       C3542   1.422       .  A
C878       C3541   1.427       .  A
C878        C879   1.520       .  S
C879        F885   1.383       .  S
C879       F1771   1.385       .  S
C879       F1772   1.384       .  S
C882        F886   1.384       .  S
C882       F1775   1.383       .  S
C882       F1776   1.385       .  S
F883       C1767   1.385       .  S
F884       C1767   1.383       .  S
F887       C1770   1.382       .  S
F888       C1770   1.385       .  S
O889       Ni895   1.946   1_655  S
O889       C2686   1.278       .  A
O890       Ni913   1.921   1_565  S
O891        H914   0.966       .  S
O891      Ni2683   1.909   1_455  S
C892        O901   1.276       .  A
C892       C1730   1.455       .  S
O893       Ni912   1.914       .  S
O893       C2675   1.269       .  A
O894       Ni912   1.926       .  S
O894        C896   1.272       .  A
Ni895       O898   1.924       .  S
Ni895       O900   1.917       .  S
C896        O906   1.281       .  A
C896       C3493   1.515       .  S
O898        C903   1.276       .  A
C899       O2669   1.271       .  A
C899       C1762   1.489       .  S
O900        C902   1.273       .  A
O901       Ni912   1.908       .  S
C902        O908   1.277       .  A
C902       C1698   1.508       .  S
C903       C1749   1.452       .  S
H904        O905   0.966       .  S
O905      Ni2689   1.902       .  S
O906       Ni907   1.958       .  S
Ni907       O911   1.914       .  S
Ni907      O2667   1.905       .  S
O908       Ni913   1.956   1_565  S
C910       O2665   1.279   1_545  A
C910       C1685   1.509       .  S
Ni913      O2681   1.898   1_445  S
O915       Ni921   1.928       .  S
O915       C2712   1.272       .  A
O916       Ni939   1.926       .  S
O916        C925   1.272       .  A
O917        H940   0.966       .  S
O917       Ni921   1.909       .  S
O917       Ni939   1.914       .  S
O917      Ni2709   1.904   1_455  S
C918        O935   1.277       .  A
C918        O927   1.276       .  A
C918       C1637   1.440       .  S
O919      Ni2714   1.930   1_455  S
O919        C925   1.270       .  A
O920       Ni938   1.931       .  S
O920       C2698   1.273       .  A
Ni921       O924   1.905       .  S
Ni921       O926   1.918       .  S
C922       O2696   1.273   1_455  A
C922        O932   1.278       .  A
C922       C1701   1.522       .  S
O923       Ni939   1.888       .  S
O923        C929   1.266       .  A
O924        C929   1.273       .  A
C925       C1669   1.508       .  S
O926        C928   1.273       .  A
O927       Ni938   1.902       .  S
C928        O934   1.283       .  A
C928       C1714   1.510       .  S
C929       C1650   1.466       .  S
H930        O931   0.966       .  S
O931      Ni2715   1.894       .  S
O931       Ni933   1.903       .  S
O931       Ni938   1.894       .  S
O932      Ni2709   1.952   1_455  S
Ni933      O2708   1.951       .  S
Ni933       O937   1.936       .  S
Ni933       O935   1.898       .  S
Ni933      O2693   1.901       .  S
O934       Ni939   1.972       .  S
C936       O2691   1.271       .  A
C936        O937   1.273       .  A
C936       C1618   1.512       .  S
Ni938      O2695   1.933       .  S
Ni939      O2707   1.890   1_455  S
O941       Ni947   1.930       .  S
O941        C962   1.277       .  A
O942       Ni965   1.894       .  S
O943        H966   0.966       .  S
O943       Ni959   1.903       .  S
C944        O953   1.275       .  A
C944       C1746   1.463       .  S
O945       Ni964   1.920       .  S
O945        C951   1.271       .  A
O946       Ni964   1.926       .  S
O946        C948   1.271       .  A
Ni947       O950   1.911       .  S
Ni947       O952   1.924       .  S
C948        O958   1.276       .  A
C948       C1589   1.510       .  S
O950        C955   1.277       .  A
C951       C1605   1.452       .  S
O952        C954   1.271       .  A
O953       Ni964   1.908       .  S
C954        O960   1.283       .  A
C954       C1573   1.528       .  S
C955       C1733   1.449       .  S
H956        O957   0.966       .  S
O957       Ni965   1.912       .  S
O958       Ni959   1.951       .  S
Ni959       O963   1.887       .  S
O960       Ni965   1.963       .  S
C962       C1554   1.472       .  S
O967       Ni973   1.931       .  S
O967        C988   1.271       .  A
O968       Ni991   1.930       .  S
O968        C977   1.272       .  A
O969        H992   0.966       .  S
O969       Ni973   1.909       .  S
O969       Ni991   1.911       .  S
O969       Ni985   1.893       .  S
C970        O987   1.270       .  A
C970        O979   1.276       .  A
C970       C1653   1.463       .  S
O971       Ni990   1.937       .  S
O971        C977   1.274       .  A
O972       Ni990   1.920       .  S
O972        C974   1.270       .  A
Ni973       O976   1.900       .  S
Ni973       O978   1.930       .  S
C974        O984   1.283       .  A
C974       C1570   1.535       .  S
O975       Ni991   1.893       .  S
O975        C981   1.272       .  A
O976        C981   1.273       .  A
C977       C1538   1.498       .  S
O978        C980   1.274       .  A
O979       Ni990   1.907       .  S
C980        O986   1.277       .  A
C980       C1586   1.509       .  S
C981       C1634   1.440       .  S
H982        O983   0.966       .  S
O983       Ni991   1.895       .  S
O983       Ni985   1.921       .  S
O983       Ni990   1.902       .  S
O984       Ni985   1.976       .  S
Ni985       O989   1.931       .  S
Ni985       O987   1.889       .  S
O986       Ni991   1.947       .  S
C988        O989   1.272       .  A
C988       C1525   1.499       .  S
O993       Ni999   1.909       .  S
O994      Ni1017   1.909       .  S
O994       C1003   1.268       .  A
O995       H2794   0.966   1_455  S
O995       Ni999   1.895       .  S
O995      Ni1017   1.896   1_554  S
C996       O1013   1.273       .  A
C996       O1005   1.276   1_554  A
C996       C1474   1.456       .  S
O997      Ni1016   1.924       .  S
O997       C1891   1.269   1_565  A
O998      Ni1016   1.913       .  S
O998       C1000   1.268       .  A
Ni999      O1002   1.905       .  S
Ni999      O1004   1.915       .  S
C1000      O1010   1.279   1_556  A
C1000      C1442   1.510       .  S
O1001     Ni1017   1.928       .  S
O1001      C1007   1.279       .  A
O1002      C1007   1.278   1_554  A
C1003      O1885   1.275   1_455  A
O1004      C1006   1.266       .  A
O1005     Ni2792   1.915   1_455  S
C1006      O1012   1.277   1_554  A
C1006      C1458   1.507       .  S
C1007      C1490   1.460       .  S
H1008      O1009   0.966       .  S
O1009     Ni1011   1.913   1_556  S
O1009     Ni2792   1.904   1_455  S
O1010     Ni2787   1.956       .  S
Ni1011     O2786   1.962   1_455  S
Ni1011     O1015   1.928       .  S
Ni1011     O1013   1.900       .  S
O1012     Ni1017   1.951       .  S
C1014      O1015   1.270       .  A
C1014      C1765   1.504       .  S
Ni1016     O2781   1.916       .  S
Ni1016     O2785   1.902       .  S
H1018      O2771   0.966       .  S
O1019     Ni1025   1.917   1_655  S
O1019      C2816   1.266       .  A
O1020     Ni1043   1.937       .  S
O1020      C1029   1.273       .  A
O1021      H1044   0.966       .  S
O1021     Ni1025   1.897       .  S
O1021     Ni1043   1.919   1_556  S
O1021     Ni2813   1.926   1_455  S
C1022      O1039   1.281   1_554  A
C1022      O1031   1.276       .  A
C1022      C1397   1.492   1_554  S
O1023     Ni2818   1.915   1_455  S
O1023      C1029   1.265       .  A
O1024     Ni1042   1.908       .  S
O1024      C2802   1.268   1_554  A
Ni1025     O1028   1.906       .  S
Ni1025     O1030   1.902       .  S
C1026      O2800   1.268       .  A
C1026      O1036   1.265   1_554  A
C1026      C1493   1.457   1_554  S
O1027     Ni1043   1.955       .  S
O1027      C1033   1.288   1_554  A
O1028      C1033   1.272       .  A
C1029      C1666   1.504       .  S
O1030      C1032   1.268   1_556  A
O1031     Ni1042   1.905       .  S
C1032      O1038   1.260       .  A
C1032      C1477   1.452       .  S
C1033      C1413   1.499       .  S
H1034      O1035   0.966       .  S
O1035     Ni2819   1.929       .  S
O1035     Ni1037   1.910   1_554  S
O1035     Ni1042   1.900       .  S
O1036     Ni2813   1.907       .  S
Ni1037     O2812   1.906       .  S
Ni1037     O1041   1.919       .  S
Ni1037     O1039   1.942       .  S
Ni1037     O2797   1.922       .  S
O1038     Ni1043   1.897       .  S
C1040      O2795   1.268       .  A
C1040      O1041   1.267       .  A
C1040      C1426   1.489       .  S
Ni1042     O2799   1.912       .  S
Ni1043     O2811   1.936   1_455  S
O1045     Ni1051   1.919       .  S
O1046     Ni1069   1.890       .  S
O1046      C1055   1.262       .  A
O1047      H1070   0.966       .  S
O1047     Ni1051   1.920       .  S
O1047     Ni1069   1.920   1_554  S
C1048      O1065   1.265       .  A
C1048      O1057   1.275   1_554  A
C1048      C1349   1.454       .  S
O1049     Ni1068   1.924       .  S
O1050     Ni1068   1.908       .  S
O1050      C1052   1.267       .  A
Ni1051     O1054   1.902       .  S
Ni1051     O1056   1.904       .  S
C1052      O1062   1.268   1_556  A
C1052      C1410   1.476       .  S
O1053     Ni1069   1.890       .  S
O1053      C1059   1.263       .  A
O1054      C1059   1.268   1_554  A
O1056      C1058   1.270       .  A
O1057     Ni1068   1.908       .  S
C1058      O1064   1.271   1_554  A
C1058      C1394   1.480       .  S
C1059      C1362   1.448       .  S
H1060      O1061   0.966   1_545  S
O1061     Ni1063   1.900   1_556  S
O1061     Ni1068   1.910       .  S
O1062     Ni1063   1.926       .  S
Ni1063     O1067   1.880       .  S
Ni1063     O1065   1.881       .  S
O1064     Ni1069   1.939       .  S
C1066      O1067   1.258       .  A
O1071     Ni1077   1.911       .  S
O1071      C1092   1.269       .  A
O1072     Ni1095   1.952       .  S
O1072      C1081   1.280       .  A
O1073      H1096   0.966       .  S
O1073     Ni1077   1.896       .  S
O1073     Ni1095   1.905   1_554  S
O1073     Ni1089   1.921       .  S
C1074      O1091   1.284   1_556  A
C1074      O1083   1.274       .  A
C1074      C1365   1.461       .  S
O1075     Ni1094   1.908       .  S
O1075      C1081   1.265       .  A
O1076     Ni1094   1.915       .  S
O1076      C1078   1.268       .  A
Ni1077     O1080   1.907       .  S
Ni1077     O1082   1.913       .  S
C1078      O1088   1.281   1_556  A
C1078      C1461   1.516       .  S
O1079     Ni1095   1.907   1_554  S
O1079      C1085   1.283       .  A
O1080      C1085   1.276       .  A
C1081      C1330   1.510       .  S
O1082      C1084   1.269       .  A
O1083     Ni1094   1.898       .  S
C1084      O1090   1.280   1_554  A
C1084      C1445   1.519       .  S
C1085      C1346   1.450       .  S
H1086      O1087   0.966       .  S
O1087     Ni1095   1.918       .  S
O1087     Ni1089   1.906   1_556  S
O1087     Ni1094   1.892       .  S
O1088     Ni1089   1.954       .  S
Ni1089     O1093   1.948       .  S
Ni1089     O1091   1.918       .  S
O1090     Ni1095   1.954       .  S
C1092      O1093   1.275       .  A
C1092      C1541   1.508       .  S
O1097     Ni1103   1.900   1_655  S
O1097      C2894   1.264       .  A
O1098     Ni1121   1.928       .  S
O1099      H1122   0.966   1_545  S
O1099     Ni2891   1.965       .  S
C1100      O1117   1.301       .  A
O1101     Ni1120   1.923   1_565  S
O1101      C2883   1.272   1_565  A
O1102     Ni1120   1.915   1_565  S
O1102      C1104   1.271       .  A
Ni1103     O1106   1.924       .  S
Ni1103     O1108   1.901       .  S
C1104      O1114   1.282       .  A
C1104      C1269   1.511       .  S
O1106      C1111   1.282       .  A
C1107      O2877   1.272   1_445  A
C1107      C1509   1.475       .  S
O1108      C1110   1.264       .  A
O1109     Ni1120   1.932       .  S
C1110      O1116   1.283       .  A
C1110      C1285   1.520       .  S
H1112      O1113   0.966       .  S
O1113     Ni2897   1.959       .  S
O1114     Ni1115   1.963   1_565  S
Ni1115     O1119   1.954       .  S
Ni1115     O2875   1.961       .  S
O1116     Ni1121   1.964       .  S
C1118      O2873   1.267       .  A
C1118      C1682   1.490       .  S
Ni1121     O2889   1.969   1_455  S
O1123     Ni1129   1.926   1_655  S
O1123      C2920   1.270       .  A
O1124     Ni1147   1.947       .  S
O1124      C2909   1.277       .  A
O1125      H2924   0.967       .  S
O1125     Ni1129   1.898       .  S
O1125     Ni1147   1.907       .  S
O1125     Ni2917   1.902   1_455  S
C1126      O1143   1.275       .  A
C1126      O1135   1.276       .  A
C1126      C1205   1.461       .  S
O1127     Ni1146   1.918       .  S
O1127      C1133   1.270       .  A
O1128     Ni1146   1.931       .  S
O1128      C1130   1.274       .  A
Ni1129     O1132   1.905       .  S
Ni1129     O1134   1.907       .  S
C1130      O1140   1.279       .  A
C1130      C1237   1.521       .  S
O1131     Ni1147   1.905       .  S
O1131      C1137   1.281       .  A
O1132      C1137   1.278       .  A
C1133      O2900   1.275       .  A
C1133      C1621   1.508       .  S
O1134      C1136   1.269       .  A
O1135     Ni1146   1.893       .  S
C1136      O1142   1.281       .  A
C1136      C1250   1.511       .  S
C1137      C1218   1.449       .  S
H1138      O1139   0.967       .  S
O1139     Ni2923   1.902       .  S
O1139     Ni1141   1.903       .  S
O1139     Ni1146   1.903       .  S
O1140     Ni1141   1.956       .  S
Ni1141     O1145   1.933       .  S
Ni1141     O1143   1.899       .  S
Ni1141     O2901   1.900       .  S
O1142     Ni1147   1.960       .  S
C1144      O2899   1.271       .  A
C1144      O1145   1.273       .  A
C1144      C1429   1.495       .  S
Ni1147     O2915   1.911   1_455  S
H1148      O2901   0.966       .  S
O1149     Ni1155   1.928       .  S
O1150     Ni1173   1.893       .  S
O1150      C1159   1.264       .  A
O1151      H1174   0.966       .  S
O1151     Ni1155   1.890       .  S
O1151     Ni1173   1.900       .  S
C1152      O1169   1.266       .  A
C1152      O1161   1.276       .  A
C1152      C1221   1.447       .  S
O1153     Ni1172   1.917       .  S
O1154     Ni1172   1.916       .  S
O1154      C1156   1.267       .  A
Ni1155     O1158   1.893       .  S
Ni1155     O1160   1.941       .  S
C1156      O1166   1.283       .  A
C1156      C1317   1.537       .  S
O1157     Ni1173   1.892       .  S
O1157      C1163   1.271       .  A
O1158      C1163   1.279       .  A
O1161     Ni1172   1.896       .  S
C1162      O1168   1.282       .  A
C1162      C1301   1.548       .  S
C1163      C1202   1.467       .  S
H1164      O1165   0.966       .  S
O1165     Ni1167   1.906       .  S
O1165     Ni1172   1.895       .  S
O1166     Ni1167   1.982       .  S
Ni1167     O1171   1.892   1_565  S
Ni1167     O1169   1.883       .  S
C1170      O1171   1.264       .  A
C1170      C1381   1.465       .  S
O1175     Ni1181   1.936       .  S
O1175      C1196   1.273       .  A
O1176     Ni1199   1.944       .  S
O1176      C1185   1.282       .  A
O1177      H1200   0.966       .  S
O1177     Ni1181   1.904       .  S
O1177     Ni1199   1.921       .  S
O1177     Ni1193   1.939       .  S
C1178      O1195   1.284       .  A
C1178      O1187   1.283       .  A
C1178      C1234   1.521       .  S
O1179     Ni1198   1.937       .  S
O1179      C1185   1.272       .  A
O1180     Ni1198   1.911       .  S
O1180      C1182   1.269       .  A
Ni1181     O1184   1.926       .  S
Ni1181     O1186   1.900       .  S
C1182      O1192   1.280       .  A
C1182      C1266   1.496       .  S
O1183     Ni1199   1.963       .  S
O1183      C1189   1.290       .  A
O1184      C1189   1.278       .  A
C1185      C1333   1.520       .  S
O1186      C1188   1.272       .  A
O1187     Ni1198   1.946       .  S
C1188      O1194   1.283       .  A
C1188      C1282   1.508       .  S
C1189      C1253   1.525       .  S
H1190      O1191   0.966       .  S
O1191     Ni1199   1.949       .  S
O1191     Ni1193   1.911       .  S
O1191     Ni1198   1.908       .  S
O1192     Ni1193   1.956       .  S
Ni1193     O1197   1.929       .  S
Ni1193     O1195   1.954       .  S
O1194     Ni1199   1.966       .  S
C1196      O1197   1.273       .  A
C1196      C1522   1.499       .  S
C1201      C1202   1.394       .  A
C1201      C1206   1.396       .  A
C1201      H1208   1.083       .  S
C1202      C1203   1.402       .  A
C1203      C1204   1.392       .  A
C1203      C1210   1.508       .  S
C1204      C1205   1.410       .  A
C1204      H1209   1.084       .  S
C1205      C1206   1.427       .  A
C1206      C1207   1.522       .  S
C1207      F1211   1.385       .  S
C1207      F1212   1.373       .  S
C1207      F1213   1.384       .  S
C1210      F1214   1.384       .  S
C1210      F1215   1.383       .  S
C1210      F1216   1.383       .  S
C1217      C1218   1.404       .  A
C1217      C1222   1.396       .  A
C1217      H1224   1.084       .  S
C1218      C1219   1.419       .  A
C1219      C1220   1.386       .  A
C1219      C1226   1.517       .  S
C1220      C1221   1.394       .  A
C1220      H1225   1.087       .  S
C1221      C1222   1.410       .  A
C1222      C1223   1.518       .  S
C1223      F1227   1.385       .  S
C1223      F1228   1.383       .  S
C1223      F1229   1.383       .  S
C1226      F1230   1.370       .  S
C1226      F1231   1.382       .  S
C1226      F1232   1.383       .  S
C1233      C1234   1.413       .  A
C1233      C1238   1.421       .  A
C1233      H1240   1.083       .  S
C1234      C1235   1.424       .  A
C1235      C1236   1.422       .  A
C1235      C1242   1.519       .  S
C1236      C1237   1.413       .  A
C1236      H1241   1.083       .  S
C1237      C1238   1.421       .  A
C1238      C1239   1.514       .  S
C1239      F1243   1.385       .  S
C1239      F1244   1.382       .  S
C1239      F1245   1.374       .  S
C1242      F1246   1.383       .  S
C1242      F1247   1.383       .  S
C1242      F1248   1.385       .  S
C1249      C1250   1.414       .  A
C1249      C1254   1.421       .  A
C1249      H1256   1.082       .  S
C1250      C1251   1.414       .  A
C1251      C1252   1.419       .  A
C1251      C1258   1.518       .  S
C1252      C1253   1.421       .  A
C1252      H1257   1.082       .  S
C1253      C1254   1.422       .  A
C1254      C1255   1.518       .  S
C1255      F1259   1.385       .  S
C1255      F1260   1.383       .  S
C1255      F1261   1.383       .  S
C1258      F1262   1.381       .  S
C1258      F1263   1.383       .  S
C1258      F1264   1.384       .  S
C1265      C1266   1.410       .  A
C1265      C1270   1.421       .  A
C1265      H1272   1.083       .  S
C1266      C1267   1.416       .  A
C1267      C1268   1.413       .  A
C1267      C1274   1.518       .  S
C1268      C1269   1.413       .  A
C1268      H1273   1.085       .  S
C1269      C1270   1.420       .  A
C1270      C1271   1.516       .  S
C1271      F1275   1.385       .  S
C1271      F1276   1.384       .  S
C1271      F1277   1.380       .  S
C1274      F1278   1.382       .  S
C1274      F1279   1.383       .  S
C1274      F1280   1.384       .  S
C1281      C1282   1.399       .  A
C1281      C1286   1.408       .  A
C1281      H1288   1.083       .  S
C1282      C1283   1.425       .  A
C1283      C1284   1.425       .  A
C1283      C1290   1.516       .  S
C1284      C1285   1.412       .  A
C1284      H1289   1.082       .  S
C1285      C1286   1.437       .  A
C1286      C1287   1.526       .  S
C1287      F1291   1.385       .  S
C1287      F1292   1.383       .  S
C1287      F1293   1.380       .  S
C1290      F1294   1.378       .  S
C1290      F1295   1.383       .  S
C1290      F1296   1.385       .  S
C1297      C1302   1.421       .  A
C1297      H1304   1.081       .  S
C1298      C1299   1.425       .  A
C1299      C1300   1.435       .  A
C1299      C1306   1.515   1_545  S
C1300      C1301   1.419       .  A
C1300      H1305   1.082   1_545  S
C1302      C1303   1.524       .  S
C1303      F1307   1.385       .  S
C1303      F1308   1.384       .  S
C1306      F1311   1.383   1_565  S
C1306      F1312   1.384       .  S
C1313      C1314   1.405       .  A
C1313      C1318   1.418       .  A
C1313      H1320   1.082       .  S
C1315      C1316   1.431       .  A
C1315      C1322   1.515       .  S
C1316      H1321   1.082       .  S
C1317      C1318   1.437       .  A
C1318      C1319   1.525       .  S
C1319      F1323   1.385       .  S
C1319      F1324   1.384       .  S
C1319      F1325   1.383       .  S
C1322      F1326   1.383       .  S
C1322      F1327   1.381       .  S
C1322      F1328   1.385       .  S
C1329      C1330   1.403       .  A
C1329      C1334   1.417       .  A
C1329      H1336   1.082       .  S
C1330      C1331   1.427       .  A
C1331      C1332   1.415       .  A
C1331      C1338   1.519       .  S
C1332      C1333   1.407       .  A
C1332      H1337   1.083       .  S
C1333      C1334   1.435       .  A
C1334      C1335   1.522       .  S
C1335      F1339   1.385       .  S
C1335      F1340   1.384       .  S
C1335      F1341   1.383       .  S
C1338      F1342   1.384       .  S
C1338      F1343   1.382       .  S
C1338      F1344   1.385       .  S
C1345      C1346   1.401       .  A
C1345      C1350   1.391       .  A
C1345      H1352   1.085   1_554  S
C1346      C1347   1.413       .  A
C1347      C1348   1.398       .  A
C1347      C1354   1.519       .  S
C1348      C1349   1.403       .  A
C1348      H1353   1.083       .  S
C1349      C1350   1.406       .  A
C1350      C1351   1.514   1_554  S
C1351      F1355   1.382       .  S
C1351      F1356   1.385       .  S
C1351      F1357   1.383       .  S
C1354      F1358   1.382       .  S
C1354      F1359   1.383       .  S
C1354      F1360   1.385       .  S
C1361      C1362   1.402       .  A
C1361      C1366   1.403       .  A
C1361      H1368   1.084       .  S
C1362      C1363   1.408       .  A
C1363      C1364   1.389       .  A
C1363      C1370   1.516   1_556  S
C1364      C1365   1.402       .  A
C1364      H1369   1.085   1_556  S
C1365      C1366   1.417       .  A
C1366      C1367   1.519       .  S
C1367      F1371   1.385       .  S
C1367      F1372   1.383       .  S
C1367      F1373   1.382       .  S
C1370      F1374   1.384       .  S
C1370      F1375   1.384       .  S
C1370      F1376   1.383       .  S
C1377      C1382   1.404       .  A
C1377      H1384   1.084       .  S
C1378      C1379   1.421       .  A
C1379      C1380   1.403       .  A
C1379      C1386   1.521       .  S
C1380      C1381   1.398   1_565  A
C1380      H1385   1.083       .  S
C1382      C1383   1.520       .  S
C1383      F1387   1.385       .  S
C1383      F1388   1.382       .  S
C1383      F1389   1.383       .  S
C1386      F1390   1.383       .  S
C1386      F1391   1.384       .  S
C1386      F1392   1.384       .  S
C1393      C1394   1.409   1_556  A
C1393      C1398   1.418       .  A
C1393      H1400   1.083       .  S
C1394      C1395   1.410       .  A
C1395      C1396   1.394       .  A
C1395      C1402   1.517       .  S
C1396      C1397   1.406   1_554  A
C1396      H1401   1.080       .  S
C1397      C1398   1.420       .  A
C1398      C1399   1.516       .  S
C1399      F1403   1.383       .  S
C1399      F1404   1.383       .  S
C1399      F1405   1.383       .  S
C1402      F1406   1.383       .  S
C1402      F1407   1.376       .  S
C1402      F1408   1.385       .  S
C1409      C1410   1.390       .  A
C1409      C1414   1.401       .  A
C1409      H1416   1.084       .  S
C1410      C1411   1.416   1_556  A
C1411      C1412   1.417       .  A
C1411      C1418   1.516       .  S
C1412      C1413   1.410   1_554  A
C1412      H1417   1.083       .  S
C1413      C1414   1.435       .  A
C1414      C1415   1.526       .  S
C1415      F1419   1.385       .  S
C1415      F1420   1.379       .  S
C1415      F1421   1.383       .  S
C1418      F1422   1.383       .  S
C1418      F1423   1.383       .  S
C1418      F1424   1.384       .  S
C1425      C1426   1.403       .  A
C1425      C1430   1.408       .  A
C1425      H1432   1.083       .  S
C1426      C3203   1.419       .  A
C1427      C3202   1.422       .  A
C1427      C1428   1.414       .  A
C1427      C1434   1.518       .  S
C1428      C3205   1.407       .  A
C1428      H1433   1.083       .  S
C1429      C3204   1.407       .  A
C1429      C1430   1.420       .  A
C1430      C1431   1.512       .  S
C1431      F1435   1.385       .  S
C1431      F1436   1.381       .  S
C1431      F1437   1.382       .  S
C1434      F1438   1.383       .  S
C1434      F1439   1.383       .  S
C1434      F1440   1.385       .  S
C1441      C1442   1.408   1_554  A
C1441      C1446   1.416       .  A
C1441      H1448   1.083       .  S
C1442      C1443   1.422       .  A
C1443      C1444   1.419       .  A
C1443      C1450   1.519       .  S
C1444      C1445   1.414   1_556  A
C1444      H1449   1.082       .  S
C1445      C1446   1.429       .  A
C1446      C1447   1.521       .  S
C1447      F1451   1.385       .  S
C1447      F1452   1.384       .  S
C1447      F1453   1.383       .  S
C1450      F1454   1.382       .  S
C1450      F1455   1.383       .  S
C1450      F1456   1.385       .  S
C1457      C1458   1.403   1_556  A
C1457      C1462   1.414       .  A
C1457      H1464   1.082       .  S
C1458      C1459   1.423       .  A
C1459      C1460   1.420       .  A
C1459      C1466   1.519       .  S
C1460      C1461   1.411   1_554  A
C1460      H1465   1.082       .  S
C1461      C1462   1.430       .  A
C1462      C1463   1.521       .  S
C1463      F1467   1.385       .  S
C1463      F1468   1.382       .  S
C1463      F1469   1.384       .  S
C1466      F1470   1.384       .  S
C1466      F1471   1.383       .  S
C1466      F1472   1.383       .  S
C1473      C3250   1.408   1_556  A
C1473      C1478   1.399       .  A
C1473      H1480   1.084       .  S
C1474      C3249   1.405   1_455  A
C1474      C1475   1.410       .  A
C1475      C1476   1.401       .  A
C1475      C1482   1.518       .  S
C1476      C1477   1.402       .  A
C1476      H1481   1.084       .  S
C1477      C3254   1.405   1_455  A
C1478      C3253   1.409   1_556  A
C1478      C1479   1.519       .  S
C1479      F1483   1.385       .  S
C1479      F1484   1.384   1_556  S
C1479      F1485   1.382       .  S
C1482      F1486   1.383       .  S
C1482      F1487   1.384       .  S
C1482      F1488   1.384       .  S
C1489      C3266   1.394       .  A
C1489      C1494   1.397       .  A
C1489      H1496   1.084       .  S
C1490      C3265   1.398   1_455  A
C1490      C1491   1.415       .  A
C1491      C1492   1.401       .  A
C1491      C1498   1.512       .  S
C1492      C1493   1.397   1_455  A
C1492      H1497   1.084       .  S
C1493      C3270   1.414       .  A
C1494      C3269   1.413       .  A
C1494      C1495   1.511       .  S
C1495      F1499   1.385       .  S
C1495      F1500   1.383       .  S
C1495      F1501   1.378   1_556  S
C1498      F1502   1.382       .  S
C1498      F1503   1.380   1_556  S
C1498      F1504   1.385       .  S
C1505      C1510   1.409       .  A
C1505      H1512   1.083       .  S
C1506      C3283   1.423   1_545  A
C1507      C3282   1.426   1_565  A
C1507      C1508   1.405       .  A
C1507      C1514   1.521       .  S
C1508      C3285   1.398   1_565  A
C1508      H1513   1.084       .  S
C1509      C3284   1.399   1_545  A
C1510      C1511   1.517   1_455  S
C1511      F1515   1.384       .  S
C1511      F1516   1.382       .  S
C1511      F1517   1.384   1_655  S
C1514      F1518   1.383       .  S
C1514      F1519   1.384       .  S
C1514      F1520   1.385       .  S
C1521      C1522   1.407       .  A
C1521      C1526   1.412       .  A
C1521      H1528   1.083       .  S
C1522      C1523   1.421       .  A
C1523      C1524   1.416       .  A
C1523      C1530   1.518       .  S
C1524      C1525   1.408       .  A
C1524      H1529   1.083       .  S
C1525      C1526   1.420       .  A
C1526      C1527   1.519       .  S
C1527      F1531   1.385       .  S
C1527      F1532   1.382       .  S
C1527      F1533   1.383       .  S
C1530      F1534   1.382       .  S
C1530      F1535   1.383       .  S
C1530      F1536   1.385       .  S
C1537      C1538   1.410       .  A
C1537      C1542   1.424       .  A
C1537      H1544   1.083       .  S
C1538      C1539   1.416       .  A
C1539      C1540   1.407       .  A
C1539      C1546   1.520       .  S
C1540      C1541   1.409       .  A
C1540      H1545   1.083       .  S
C1541      C1542   1.423       .  A
C1542      C1543   1.516       .  S
C1543      F1547   1.385       .  S
C1543      F1548   1.384       .  S
C1543      F1549   1.380       .  S
C1546      F1550   1.384       .  S
C1546      F1551   1.382       .  S
C1546      F1552   1.384       .  S
C1553      C1554   1.403       .  A
C1553      C1558   1.400       .  A
C1553      H1560   1.083       .  S
C1555      C1556   1.402       .  A
C1555      C1562   1.520       .  S
C1556      H1561   1.081       .  S
C1557      C1558   1.412       .  A
C1558      C1559   1.519       .  S
C1559      F1563   1.385       .  S
C1559      F1564   1.383       .  S
C1559      F1565   1.383       .  S
C1562      F1566   1.383       .  S
C1562      F1567   1.383       .  S
C1562      F1568   1.384       .  S
C1569      C1570   1.413       .  A
C1569      C1574   1.423       .  A
C1569      H1576   1.080       .  S
C1570      C1571   1.434       .  A
C1571      C1572   1.424       .  A
C1571      C1578   1.521       .  S
C1572      C1573   1.410       .  A
C1572      H1577   1.082       .  S
C1573      C1574   1.428       .  A
C1574      C1575   1.520       .  S
C1575      F1579   1.385       .  S
C1575      F1580   1.384       .  S
C1575      F1581   1.383       .  S
C1578      F1582   1.383       .  S
C1578      F1583   1.384       .  S
C1578      F1584   1.385       .  S
C1585      C1586   1.412       .  A
C1585      C1590   1.418       .  A
C1585      H1592   1.083       .  S
C1586      C1587   1.420       .  A
C1587      C1588   1.419       .  A
C1587      C1594   1.518       .  S
C1588      C1589   1.413       .  A
C1588      H1593   1.083       .  S
C1589      C1590   1.419       .  A
C1590      C1591   1.517       .  S
C1591      F1595   1.385       .  S
C1591      F1596   1.384       .  S
C1591      F1597   1.381       .  S
C1594      F1598   1.383       .  S
C1594      F1599   1.383       .  S
C1594      F1600   1.385       .  S
C1601      C1606   1.400       .  A
C1601      H1608   1.084       .  S
C1602      C1603   1.416       .  A
C1603      C1604   1.396       .  A
C1603      C1610   1.514       .  S
C1604      C1605   1.395       .  A
C1604      H1609   1.084       .  S
C1606      C1607   1.517       .  S
C1607      F1611   1.385       .  S
C1607      F1612   1.383       .  S
C1607      F1613   1.383       .  S
C1610      F1614   1.381       .  S
C1610      F1615   1.383       .  S
C1610      F1616   1.385       .  S
C1617      C3394   1.405       .  A
C1617      C1622   1.413       .  A
C1617      H1624   1.083       .  S
C1618      C3393   1.411       .  A
C1618      C1619   1.423       .  A
C1619      C1620   1.419       .  A
C1619      C1626   1.519       .  S
C1620      C1621   1.412       .  A
C1620      H1625   1.082       .  S
C1621      C3398   1.421       .  A
C1622      C3397   1.422       .  A
C1622      C1623   1.514       .  S
C1623      F1627   1.385       .  S
C1623      F1628   1.381       .  S
C1623      F1629   1.384       .  S
C1626      F1630   1.383       .  S
C1626      F1631   1.383       .  S
C1626      F1632   1.384       .  S
C1633      C1634   1.401       .  A
C1633      C1638   1.394       .  A
C1633      H1640   1.084       .  S
C1634      C1635   1.409       .  A
C1635      C1636   1.392       .  A
C1635      C1642   1.519       .  S
C1636      C1637   1.400       .  A
C1636      H1641   1.084       .  S
C1637      C1638   1.409       .  A
C1638      C1639   1.519       .  S
C1639      F1643   1.385       .  S
C1639      F1644   1.383       .  S
C1639      F1645   1.382       .  S
C1642      F1646   1.382       .  S
C1642      F1647   1.383       .  S
C1642      F1648   1.385       .  S
C1649      C1650   1.405       .  A
C1649      C1654   1.395       .  A
C1649      H1656   1.083       .  S
C1650      C1651   1.418       .  A
C1651      C1652   1.392       .  A
C1651      C1658   1.521       .  S
C1652      C1653   1.403       .  A
C1652      H1657   1.083       .  S
C1653      C1654   1.417       .  A
C1654      C1655   1.521       .  S
C1655      F1659   1.385       .  S
C1655      F1660   1.379       .  S
C1655      F1661   1.383       .  S
C1658      F1662   1.384       .  S
C1658      F1663   1.380       .  S
C1658      F1664   1.385       .  S
C1665      C3442   1.406       .  A
C1665      C1670   1.413       .  A
C1665      H1672   1.082       .  S
C1666      C3441   1.406       .  A
C1666      C1667   1.424       .  A
C1667      C1668   1.413       .  A
C1667      C1674   1.519       .  S
C1668      C1669   1.408       .  A
C1668      H1673   1.082       .  S
C1669      C3446   1.427       .  A
C1670      C3445   1.427       .  A
C1670      C1671   1.520       .  S
C1671      F1675   1.385       .  S
C1671      F1676   1.384       .  S
C1671      F1677   1.383       .  S
C1674      F1678   1.384       .  S
C1674      F1679   1.383       .  S
C1674      F1680   1.385       .  S
C1681      C3458   1.403       .  A
C1681      C1686   1.420       .  A
C1681      H1688   1.083       .  S
C1682      C3457   1.403       .  A
C1683      C1684   1.417       .  A
C1683      C1690   1.515       .  S
C1684      C1685   1.411   1_565  A
C1684      H1689   1.083       .  S
C1685      C2574   1.427       .  A
C1686      C2573   1.433       .  A
C1686      C1687   1.520       .  S
C1687      F1691   1.385       .  S
C1687      F1692   1.383       .  S
C1687      F1693   1.383       .  S
C1690      F1694   1.383       .  S
C1690      F1695   1.383       .  S
C1690      F1696   1.384       .  S
C1697      C1698   1.409       .  A
C1697      C1702   1.417       .  A
C1697      H1704   1.083       .  S
C1698      C3475   1.417   1_455  A
C1699      C3474   1.414       .  A
C1699      C1700   1.421       .  A
C1699      C1706   1.515       .  S
C1700      C3477   1.416       .  A
C1700      H1705   1.083       .  S
C1701      C3476   1.418   1_455  A
C1701      C1702   1.426       .  A
C1702      C1703   1.519       .  S
C1703      F1707   1.385       .  S
C1703      F1708   1.383       .  S
C1703      F1709   1.382       .  S
C1706      F1710   1.382       .  S
C1706      F1711   1.384       .  S
C1706      F1712   1.385       .  S
C1713      C1714   1.412       .  A
C1713      C1718   1.422       .  A
C1713      H1720   1.083       .  S
C1714      C3491   1.416   1_455  A
C1715      C3490   1.415       .  A
C1715      C1716   1.421       .  A
C1715      C1722   1.516       .  S
C1716      C3493   1.416       .  A
C1716      H1721   1.083       .  S
C1717      C2672   1.518       .  S
C1717      C3492   1.415   1_455  A
C1717      C1718   1.422       .  A
C1718      C1719   1.517       .  S
C1719      F1723   1.385       .  S
C1719      F1724   1.383       .  S
C1719      F1725   1.382       .  S
C1722      F1726   1.383       .  S
C1722      F1727   1.384       .  S
C1722      F1728   1.384       .  S
C1729      C1730   1.400       .  A
C1729      C1734   1.399       .  A
C1729      H1736   1.084       .  S
C1731      C1732   1.397       .  A
C1731      C1738   1.518       .  S
C1732      C1733   1.403       .  A
C1732      H1737   1.084       .  S
C1734      C1735   1.520       .  S
C1735      F1739   1.385       .  S
C1735      F1740   1.383       .  S
C1735      F1741   1.382       .  S
C1738      F1742   1.384       .  S
C1738      F1743   1.382       .  S
C1738      F1744   1.384       .  S
C1745      C1746   1.408       .  A
C1745      C1750   1.401       .  A
C1745      H1752   1.084       .  S
C1747      C1748   1.400       .  A
C1747      C1754   1.518       .  S
C1748      C1749   1.402       .  A
C1748      H1753   1.084       .  S
C1750      C1751   1.516       .  S
C1751      F1755   1.385       .  S
C1751      F1756   1.382       .  S
C1751      F1757   1.383       .  S
C1754      F1758   1.384       .  S
C1754      F1759   1.382       .  S
C1754      F1760   1.384       .  S
C1761      C3538   1.403       .  A
C1761      C1766   1.412       .  A
C1761      H1768   1.083       .  S
C1762      C3537   1.407       .  A
C1763      C1764   1.405       .  A
C1763      C1770   1.519       .  S
C1764      C1765   1.413   1_545  A
C1764      H1769   1.082       .  S
C1765      C2654   1.426       .  A
C1766      C2653   1.422       .  A
C1766      C1767   1.519       .  S
C1767      F1773   1.383       .  S
C1770      F1774   1.384       .  S
O1777     Ni1783   1.952       .  S
O1778     Ni1801   1.931       .  S
O1778      C2675   1.273       .  A
O1779      H1802   0.966       .  S
O1779     Ni2671   1.912   1_545  S
O1779     Ni2689   1.912   1_545  S
C1780      O2685   1.272       .  A
C1780      O1789   1.273       .  A
C1780      C2618   1.437       .  S
O1781     Ni1800   1.926   1_455  S
O1782     Ni1800   1.933       .  S
O1782      C1784   1.274       .  A
Ni1783     O1786   1.919       .  S
Ni1783     O1788   1.930       .  S
Ni1783     O2667   1.912       .  S
C1784      O1794   1.282   1_655  A
O1785     Ni2689   1.896   1_545  S
O1785      C2679   1.276   1_545  A
O1786      C1791   1.276       .  A
C1787      O2666   1.272   1_545  A
C1787      C2650   1.487       .  S
O1788      C1790   1.276       .  A
O1789     Ni1800   1.904   1_565  S
C1790      O1796   1.277       .  A
C1790      C2586   1.509       .  S
C1791      O2673   1.277       .  A
C1791      C2637   1.459       .  S
H1792      O1793   0.967       .  S
O1793     Ni2683   1.896       .  S
O1793     Ni2688   1.899       .  S
O1794     Ni1795   1.962   1_455  S
Ni1795     O1799   1.918       .  S
Ni1795     O2685   1.892   1_545  S
Ni1795     O2681   1.899   1_545  S
O1796     Ni1801   1.953       .  S
O1797     Ni2683   1.903       .  S
O1797      C2668   1.276       .  A
C1798      O2687   1.269       .  A
C1798      C2573   1.517       .  S
O1799      C2686   1.269   1_545  A
Ni1800     O2681   1.904   1_545  S
Ni1801     O2673   1.898       .  S
Ni1801     O2667   1.912       .  S
O1803     Ni1809   1.924       .  S
O1804     Ni1827   1.918       .  S
O1804      C1813   1.273       .  A
O1805      H1828   0.966       .  S
O1805     Ni1809   1.900       .  S
O1805     Ni1827   1.906       .  S
C1806      O1823   1.272       .  A
C1806      O1815   1.275       .  A
C1806      C2525   1.431       .  S
O1807      C1813   1.274       .  A
O1808     Ni1826   1.926       .  S
Ni1809     O1812   1.908       .  S
Ni1809     O1814   1.913       .  S
C1810      O1820   1.281       .  A
C1810      C2589   1.522       .  S
O1811     Ni1827   1.887       .  S
O1811      C1817   1.269       .  A
O1812      C1817   1.278       .  A
C1813      C2557   1.506       .  S
O1814      C1816   1.270       .  A
O1815     Ni1826   1.904       .  S
C1816      O1822   1.283       .  A
C1816      C2602   1.511       .  S
C1817      C2538   1.464       .  S
H1818      O1819   0.966       .  S
O1819     Ni1821   1.906       .  S
O1819     Ni1826   1.903       .  S
Ni1821     O1825   1.929   1_655  S
Ni1821     O1823   1.888       .  S
O1822     Ni1827   1.974       .  S
C1824      O1825   1.273       .  A
C1824      C2506   1.496       .  S
O1829     Ni1835   1.928       .  S
O1829      C1850   1.274       .  A
O1830     Ni1853   1.908       .  S
O1830      C2727   1.269       .  A
O1831      H1854   0.966   1_565  S
O1831     Ni2723   1.896       .  S
O1831     Ni2741   1.888       .  S
O1831     Ni1847   1.898       .  S
C1832      O2737   1.275       .  A
C1832      O1841   1.274       .  A
C1832      C2634   1.460       .  S
O1833     Ni1852   1.917       .  S
O1833      C1839   1.269       .  A
O1834     Ni1852   1.924   1_545  S
O1834      C1836   1.271       .  A
Ni1835     O1838   1.904       .  S
Ni1835     O1840   1.920       .  S
Ni1835     O2719   1.894       .  S
C1836      O1846   1.274       .  A
C1836      C2477   1.517       .  S
O1837     Ni2741   1.890       .  S
O1837      C2731   1.270       .  A
O1838      C1843   1.275       .  A
C1839      O2718   1.264       .  A
C1839      C2493   1.452       .  S
O1840      C1842   1.271       .  A
O1841     Ni1852   1.906       .  S
C1842      O1848   1.285       .  A
C1842      C2461   1.524       .  S
C1843      O2725   1.276       .  A
C1843      C2621   1.443       .  S
H1844      O1845   0.966       .  S
O1845     Ni1853   1.916       .  S
O1845     Ni2735   1.890       .  S
O1845     Ni2740   1.906       .  S
O1846     Ni1847   1.948   1_545  S
Ni1847     O1851   1.879       .  S
Ni1847     O2737   1.900       .  S
Ni1847     O2733   1.887       .  S
O1848     Ni1853   1.966       .  S
O1849     Ni2735   1.901       .  S
O1849      C2720   1.273       .  A
C1850      O2739   1.260       .  A
C1850      C2442   1.464       .  S
O1851      C2738   1.260       .  A
Ni1852     O2733   1.904       .  S
Ni1853     O2725   1.901       .  S
Ni1853     O2719   1.890       .  S
O1855     Ni1861   1.928       .  S
O1855      C1876   1.269       .  A
O1856     Ni1879   1.918       .  S
O1856      C1865   1.268       .  A
O1857      H1880   0.966       .  S
O1857     Ni1861   1.918       .  S
O1857     Ni1879   1.909       .  S
O1857     Ni1873   1.890       .  S
C1858      O1875   1.266       .  A
C1858      O1867   1.276       .  A
C1858      C2541   1.464       .  S
O1859     Ni1878   1.942       .  S
O1859      C1865   1.274       .  A
O1860     Ni1878   1.920       .  S
O1860      C1862   1.271       .  A
Ni1861     O1864   1.902       .  S
Ni1861     O1866   1.923       .  S
C1862      O1872   1.283       .  A
C1862      C2458   1.530       .  S
O1863     Ni1879   1.879       .  S
O1863      C1869   1.268       .  A
O1864      C1869   1.272       .  A
C1865      C2426   1.489       .  S
O1866      C1868   1.273       .  A
O1867     Ni1878   1.915       .  S
C1868      O1874   1.276       .  A
C1868      C2474   1.515       .  S
C1869      C2522   1.431       .  S
H1870      O1871   0.966       .  S
O1871     Ni1879   1.899       .  S
O1871     Ni1873   1.921       .  S
O1871     Ni1878   1.915       .  S
O1872     Ni1873   1.966       .  S
Ni1873     O1877   1.928       .  S
Ni1873     O1875   1.883       .  S
O1874     Ni1879   1.951       .  S
C1876      O1877   1.269       .  A
C1876      C2413   1.493       .  S
O1881     Ni1887   1.918       .  S
O1881      C2790   1.270   1_545  A
O1882     Ni1905   1.925       .  S
O1882      C1891   1.272       .  A
O1883     Ni1887   1.894       .  S
O1883     Ni1905   1.905   1_554  S
O1883     Ni2787   1.915   1_545  S
C1884      O1901   1.278       .  A
C1884      O1893   1.278   1_554  A
C1884      C2362   1.459       .  S
O1885     Ni1904   1.937   1_655  S
O1886     Ni1904   1.924   1_655  S
O1886      C1888   1.273       .  A
Ni1887     O1890   1.910       .  S
Ni1887     O1892   1.910       .  S
C1888      O1898   1.285   1_556  A
C1888      C2330   1.524       .  S
O1889     Ni1905   1.929       .  S
O1889      C1895   1.279       .  A
O1890      C1895   1.278   1_554  A
C1891      C3282   1.494       .  S
O1892      C1894   1.266       .  A
C1894      O1900   1.280   1_554  A
C1894      C2346   1.504       .  S
C1895      C2378   1.462       .  S
H1896      O1897   0.966       .  S
O1897     Ni2793   1.913       .  S
O1897     Ni1899   1.907   1_556  S
Ni1899     O1903   1.929       .  S
Ni1899     O1901   1.920       .  S
Ni1899     O2771   1.915       .  S
O1900     Ni1905   1.953       .  S
C1902      O2769   1.273       .  A
C1902      O1903   1.275       .  A
C1902      C2653   1.497       .  S
Ni1905     O2785   1.915   1_545  S
O1907     Ni1913   1.930       .  S
O1908     Ni1931   1.933       .  S
O1908      C1917   1.270       .  A
O1909      H1932   0.966       .  S
O1909     Ni1913   1.900       .  S
O1909     Ni1931   1.916   1_556  S
C1910      O1927   1.281   1_554  A
C1910      O1919   1.278       .  A
C1910      C2285   1.502       .  S
O1911      C1917   1.264       .  A
O1912     Ni1930   1.908       .  S
Ni1913     O1916   1.923       .  S
Ni1913     O1918   1.902       .  S
C1914      O1924   1.266   1_554  A
C1914      C2381   1.465   1_554  S
O1915     Ni1931   1.932       .  S
O1915      C1921   1.281   1_554  A
O1916      C1921   1.280       .  A
C1917      C2554   1.503       .  S
O1918      C1920   1.267   1_556  A
O1919     Ni1930   1.912       .  S
C1920      O1926   1.265       .  A
C1920      C2365   1.462       .  S
C1921      C2301   1.502       .  S
H1922      O1923   0.966       .  S
O1923     Ni1925   1.912   1_554  S
O1923     Ni1930   1.897       .  S
Ni1925     O1929   1.931       .  S
Ni1925     O1927   1.942       .  S
O1926     Ni1931   1.918       .  S
C1928      O1929   1.269       .  A
C1928      C2314   1.497       .  S
O1933     Ni1939   1.932       .  S
O1933      C2842   1.269   1_545  A
O1934     Ni1957   1.895       .  S
O1934      C1943   1.263   1_545  A
O1935      H1958   0.966       .  S
O1935     Ni1939   1.914   1_565  S
O1935     Ni1957   1.913   1_564  S
O1935     Ni2839   1.891       .  S
C1936      O1953   1.271       .  A
C1936      O1945   1.273   1_554  A
C1936      C2237   1.458       .  S
O1937     Ni1956   1.913       .  S
O1937      C2831   1.263       .  A
O1938     Ni1956   1.906       .  S
O1938      C1940   1.265       .  A
Ni1939     O1942   1.908       .  S
Ni1939     O1944   1.903       .  S
C1940      O1950   1.270   1_556  A
C1940      C2298   1.493       .  S
O1941     Ni1957   1.885       .  S
O1941      C1947   1.265       .  A
O1942      C1947   1.272   1_554  A
C1943      O2825   1.267       .  A
C1943      C3154   1.465       .  S
O1944      C1946   1.268       .  A
O1945     Ni1956   1.897       .  S
C1946      O1952   1.273   1_554  A
C1946      C2282   1.489       .  S
C1947      C2250   1.448       .  S
H1948      O1949   0.966       .  S
O1949     Ni2845   1.889       .  S
O1949     Ni1951   1.896   1_556  S
O1949     Ni1956   1.905       .  S
O1950     Ni1951   1.927       .  S
Ni1951     O1955   1.891       .  S
Ni1951     O1953   1.894       .  S
Ni1951     O2823   1.900       .  S
O1952     Ni1957   1.946       .  S
C1954      O2821   1.272       .  A
C1954      O1955   1.261       .  A
C1954      C3378   1.465       .  S
Ni1957     O2837   1.896   1_545  S
O1959     Ni1965   1.923       .  S
O1959      C1980   1.274       .  A
O1960     Ni1983   1.941       .  S
O1960      C1969   1.278       .  A
O1961      H1984   0.967       .  S
O1961     Ni1965   1.902       .  S
O1961     Ni1983   1.905   1_554  S
O1961     Ni1977   1.919       .  S
C1962      O1979   1.284   1_556  A
C1962      O1971   1.273       .  A
C1962      C2253   1.461       .  S
O1963     Ni1982   1.909       .  S
O1963      C1969   1.264       .  A
O1964     Ni1982   1.911       .  S
O1964      C1966   1.265       .  A
Ni1965     O1968   1.909       .  S
Ni1965     O1970   1.927       .  S
C1966      O1976   1.284   1_556  A
C1966      C2349   1.518       .  S
O1967     Ni1983   1.900   1_554  S
O1967      C1973   1.280       .  A
O1968      C1973   1.275       .  A
C1969      C2218   1.498       .  S
O1970      C1972   1.274       .  A
O1971     Ni1982   1.895       .  S
C1972      O1978   1.283   1_554  A
C1972      C2333   1.530       .  S
C1973      C2234   1.447       .  S
H1974      O1975   0.966       .  S
O1975     Ni1983   1.913       .  S
O1975     Ni1977   1.904   1_556  S
O1975     Ni1982   1.890       .  S
O1976     Ni1977   1.966       .  S
Ni1977     O1981   1.932       .  S
Ni1977     O1979   1.923       .  S
O1978     Ni1983   1.967       .  S
C1980      O1981   1.275       .  A
C1980      C2429   1.512       .  S
O1985     Ni1991   1.907       .  S
O1986     Ni2009   1.928       .  S
O1986      C2883   1.275       .  A
O1987      H2010   0.966       .  S
O1987     Ni2879   1.883       .  S
O1987     Ni2897   1.899       .  S
C1988      O2005   1.300       .  A
C1988      O2885   1.281       .  A
C1988      C3074   1.533       .  S
O1989     Ni2008   1.920       .  S
O1990     Ni2008   1.911       .  S
O1990      C1992   1.271       .  A
Ni1991     O1994   1.932       .  S
Ni1991     O1996   1.902       .  S
Ni1991     O2875   1.886       .  S
C1992      O2002   1.281       .  A
C1992      C2157   1.519       .  S
O1993     Ni2897   1.980       .  S
O1993      C2887   1.293       .  A
O1994      C1999   1.284       .  A
C1995      O2874   1.275       .  A
C1995      C2397   1.476       .  S
O1996      C1998   1.264       .  A
O1997     Ni2008   1.937       .  S
O1997      C2876   1.281       .  A
C1998      O2004   1.283       .  A
C1998      C2173   1.521       .  S
C1999      O2881   1.295       .  A
C1999      C3090   1.529       .  S
H2000      O2001   0.966       .  S
O2001     Ni2891   1.911       .  S
O2001     Ni2896   1.896       .  S
O2002     Ni2003   1.962       .  S
Ni2003     O2007   1.953       .  S
Ni2003     O2893   1.997       .  S
Ni2003     O2889   1.914       .  S
O2004     Ni2009   1.967       .  S
O2005     Ni2891   1.998       .  S
C2006      O2895   1.280       .  A
C2006      C2570   1.488       .  S
O2007      C2894   1.280       .  A
Ni2008     O2889   1.897       .  S
Ni2009     O2881   1.983       .  S
Ni2009     O2875   1.897       .  S
O2011     Ni2017   1.926       .  S
O2012     Ni2035   1.938       .  S
O2013     Ni2017   1.890       .  S
O2013     Ni2035   1.898       .  S
C2014      O2031   1.274       .  A
C2014      O2023   1.276       .  A
C2014      C2093   1.461       .  S
O2015     Ni2034   1.908       .  S
O2015      C2021   1.267   1_655  A
O2016     Ni2034   1.921       .  S
O2016      C2018   1.272       .  A
Ni2017     O2020   1.915       .  S
Ni2017     O2022   1.906       .  S
C2018      O2028   1.284       .  A
C2018      C2125   1.524       .  S
O2019     Ni2035   1.891       .  S
O2019      C2025   1.274       .  A
O2020      C2025   1.281       .  A
C2021      C2509   1.516       .  S
O2022      C2024   1.269       .  A
O2023     Ni2034   1.894       .  S
C2024      O2030   1.284       .  A
C2024      C2138   1.510       .  S
C2025      C2106   1.466       .  S
H2026      O2027   0.966       .  S
O2027     Ni2029   1.904       .  S
O2027     Ni2034   1.899       .  S
O2028     Ni2029   1.966       .  S
Ni2029     O2033   1.931       .  S
Ni2029     O2031   1.899       .  S
O2030     Ni2035   1.965       .  S
C2032      O2033   1.272       .  A
C2032      C2317   1.498       .  S
O2037     Ni2043   1.931       .  S
O2037      C2946   1.275       .  A
O2038     Ni2061   1.883       .  S
O2038      C2047   1.259       .  A
O2039      H2062   0.966       .  S
O2039     Ni2043   1.886       .  S
O2039     Ni2061   1.894       .  S
O2039     Ni2943   1.875   1_545  S
C2040      O2057   1.269       .  A
C2040      O2049   1.278       .  A
C2040      C2109   1.458       .  S
O2041     Ni2060   1.910       .  S
O2041      C2935   1.265       .  A
O2042     Ni2060   1.912       .  S
O2042      C2044   1.266       .  A
Ni2043     O2046   1.897       .  S
Ni2043     O2048   1.946       .  S
C2044      O2054   1.283       .  A
C2044      C2205   1.529       .  S
O2045     Ni2061   1.890       .  S
O2045      C2051   1.270       .  A
O2046      C2051   1.280       .  A
C2047      O2929   1.270   1_545  A
C2047      C3333   1.465       .  S
O2048      C2938   1.273       .  A
O2049     Ni2060   1.901       .  S
C2050      O2936   1.274       .  A
C2050      O2056   1.280       .  A
C2050      C2189   1.544       .  S
C2051      C2090   1.465       .  S
H2052      O2053   0.966       .  S
O2053     Ni2949   1.895       .  S
O2053     Ni2055   1.898       .  S
O2053     Ni2060   1.891       .  S
O2054     Ni2055   1.985       .  S
Ni2055     O2059   1.891       .  S
Ni2055     O2057   1.889       .  S
Ni2055     O2927   1.885       .  S
O2056     Ni2949   1.971       .  S
C2058      O2925   1.272       .  A
C2058      O2059   1.265       .  A
C2058      C2269   1.456       .  S
Ni2061     O2944   1.959       .  S
Ni2061     O2941   1.883   1_545  S
O2063     Ni2069   1.930       .  S
O2063      C2084   1.273       .  A
O2064     Ni2087   1.945       .  S
O2064      C2073   1.280       .  A
O2065      H2088   0.966       .  S
O2065     Ni2069   1.898       .  S
O2065     Ni2087   1.916       .  S
O2065     Ni2081   1.948       .  S
C2066      O2083   1.292       .  A
C2066      O2075   1.282       .  A
C2066      C2122   1.524       .  S
O2067     Ni2086   1.921       .  S
O2067      C2073   1.266       .  A
O2068     Ni2086   1.905       .  S
O2068      C2070   1.267       .  A
Ni2069     O2072   1.927       .  S
Ni2069     O2074   1.903       .  S
C2070      O2080   1.280       .  A
C2070      C2154   1.497       .  S
O2071     Ni2087   1.962       .  S
O2071      C2077   1.289       .  A
O2072      C2077   1.279       .  A
C2073      C2221   1.510       .  S
O2074      C2076   1.271       .  A
O2075     Ni2086   1.936       .  S
C2076      O2082   1.284       .  A
C2076      C2170   1.506       .  S
C2077      C2141   1.510       .  S
H2078      O2079   0.966       .  S
O2079     Ni2087   1.950       .  S
O2079     Ni2081   1.904       .  S
O2079     Ni2086   1.899       .  S
O2080     Ni2081   1.958       .  S
Ni2081     O2085   1.934       .  S
Ni2081     O2083   1.972       .  S
O2082     Ni2087   1.966       .  S
C2084      O2085   1.276       .  A
C2084      C2410   1.499       .  S
C2089      C2090   1.394       .  A
C2089      C2094   1.394       .  A
C2089      H2096   1.083       .  S
C2090      C2091   1.406       .  A
C2091      C2092   1.392       .  A
C2091      C2098   1.513       .  S
C2092      C2093   1.409       .  A
C2092      H2097   1.084       .  S
C2093      C2094   1.427       .  A
C2094      C2095   1.523       .  S
C2095      F2099   1.385       .  S
C2095      F2100   1.374       .  S
C2095      F2101   1.384       .  S
C2098      F2102   1.384       .  S
C2098      F2103   1.383       .  S
C2098      F2104   1.384       .  S
C2105      C2106   1.406       .  A
C2105      C2110   1.399       .  A
C2105      H2112   1.083       .  S
C2106      C2107   1.425       .  A
C2107      C2108   1.390       .  A
C2107      C2114   1.525       .  S
C2108      C2109   1.397       .  A
C2108      H2113   1.084       .  S
C2109      C2110   1.412       .  A
C2110      C2111   1.519       .  S
C2111      F2115   1.385       .  S
C2111      F2116   1.383       .  S
C2111      F2117   1.384       .  S
C2114      F2118   1.377       .  S
C2114      F2119   1.385       .  S
C2114      F2120   1.383       .  S
C2121      C2122   1.415       .  A
C2121      C2126   1.422       .  A
C2121      H2128   1.084       .  S
C2122      C2123   1.420       .  A
C2123      C2124   1.422       .  A
C2123      C2130   1.518       .  S
C2124      C2125   1.418       .  A
C2124      H2129   1.082       .  S
C2125      C2126   1.424       .  A
C2126      C2127   1.517       .  S
C2127      F2131   1.384       .  S
C2127      F2132   1.380       .  S
C2127      F2133   1.382       .  S
C2130      F2134   1.382       .  S
C2130      F2135   1.384       .  S
C2130      F2136   1.385       .  S
C2137      C2138   1.416       .  A
C2137      C2142   1.418       .  A
C2137      H2144   1.083       .  S
C2138      C2139   1.414       .  A
C2139      C2140   1.418       .  A
C2139      C2146   1.514       .  S
C2140      C2141   1.415       .  A
C2140      H2145   1.083       .  S
C2141      C2142   1.416       .  A
C2142      C2143   1.517       .  S
C2143      F2147   1.385       .  S
C2143      F2148   1.383       .  S
C2143      F2149   1.383       .  S
C2146      F2150   1.376       .  S
C2146      F2151   1.383       .  S
C2146      F2152   1.385       .  S
C2153      C2154   1.408       .  A
C2153      C2158   1.423       .  A
C2153      H2160   1.083       .  S
C2154      C2155   1.415       .  A
C2155      C2156   1.410       .  A
C2155      C2162   1.519       .  S
C2156      C2157   1.415       .  A
C2156      H2161   1.082       .  S
C2157      C2158   1.425       .  A
C2158      C2159   1.515       .  S
C2159      F2163   1.385       .  S
C2159      F2164   1.383       .  S
C2159      F2165   1.382       .  S
C2162      F2166   1.378       .  S
C2162      F2167   1.383       .  S
C2162      F2168   1.385       .  S
C2169      C2170   1.399       .  A
C2169      C2174   1.409       .  A
C2169      H2176   1.083       .  S
C2170      C2171   1.423       .  A
C2171      C2172   1.425       .  A
C2171      C2178   1.515       .  S
C2172      C2173   1.412       .  A
C2172      H2177   1.082       .  S
C2173      C2174   1.438       .  A
C2174      C2175   1.526       .  S
C2175      F2179   1.385       .  S
C2175      F2180   1.383       .  S
C2175      F2181   1.382       .  S
C2178      F2182   1.379       .  S
C2178      F2183   1.383       .  S
C2178      F2184   1.385       .  S
C2185      C3074   1.411       .  A
C2185      C2190   1.425       .  A
C2185      H2192   1.082       .  S
C2186      C2876   1.534       .  S
C2186      C3073   1.410       .  A
C2186      C2187   1.426       .  A
C2187      C2188   1.433       .  A
C2187      C2194   1.514       .  S
C2188      C2189   1.416       .  A
C2188      H2193   1.082       .  S
C2189      C3078   1.434       .  A
C2190      C3077   1.435       .  A
C2190      C2191   1.522       .  S
C2191      F2195   1.385       .  S
C2191      F2196   1.383       .  S
C2191      F3085   1.384       .  S
C2194      F3086   1.378       .  S
C2194      F2199   1.383       .  S
C2194      F2200   1.384       .  S
F2197      C3079   1.383       .  S
F2198      C3082   1.382       .  S
C2201      C2202   1.405       .  A
C2201      C2206   1.417       .  A
C2201      H2208   1.083       .  S
C2202      C2887   1.526       .  S
C2202      C3091   1.429       .  A
C2203      C3090   1.428       .  A
C2203      C2204   1.432       .  A
C2203      C2210   1.516       .  S
C2204      C3093   1.413   1_545  A
C2204      H2209   1.082       .  S
C2205      C3092   1.412       .  A
C2205      C2206   1.433       .  A
C2206      C2207   1.523       .  S
C2207      F2211   1.385       .  S
C2207      F2212   1.383       .  S
C2207      F2213   1.383       .  S
C2210      F2214   1.383       .  S
C2210      F2215   1.382       .  S
C2210      F2216   1.384       .  S
C2217      C2218   1.398       .  A
C2217      C2222   1.410       .  A
C2217      H2224   1.082       .  S
C2218      C2219   1.424       .  A
C2219      C2220   1.415       .  A
C2219      C2226   1.517       .  S
C2220      C2221   1.407       .  A
C2220      H2225   1.083       .  S
C2221      C2222   1.434       .  A
C2222      C2223   1.522       .  S
C2223      F2227   1.385       .  S
C2223      F2228   1.380       .  S
C2223      F2229   1.383       .  S
C2226      F2230   1.384       .  S
C2226      F2231   1.382       .  S
C2226      F2232   1.385       .  S
C2233      C2234   1.398       .  A
C2233      C2238   1.392       .  A
C2233      H2240   1.085   1_554  S
C2234      C2235   1.412       .  A
C2235      C2236   1.397       .  A
C2235      C2242   1.519       .  S
C2236      C2237   1.403       .  A
C2236      H2241   1.083       .  S
C2237      C2238   1.412       .  A
C2238      C2239   1.516   1_554  S
C2239      F2243   1.382       .  S
C2239      F2244   1.384       .  S
C2239      F2245   1.383       .  S
C2242      F2246   1.382       .  S
C2242      F2247   1.383       .  S
C2242      F2248   1.385       .  S
C2249      C2250   1.400       .  A
C2249      C2254   1.400       .  A
C2249      H2256   1.084       .  S
C2250      C2251   1.405       .  A
C2251      C2252   1.392       .  A
C2251      C2258   1.515   1_556  S
C2252      C2253   1.406       .  A
C2252      H2257   1.085   1_556  S
C2253      C2254   1.417       .  A
C2254      C2255   1.519       .  S
C2255      F2259   1.384       .  S
C2255      F2260   1.383       .  S
C2255      F2261   1.382       .  S
C2258      F2262   1.383       .  S
C2258      F2263   1.384       .  S
C2258      F2264   1.383       .  S
C2265      C3154   1.400   1_545  A
C2265      C2270   1.404       .  A
C2265      H2272   1.083       .  S
C2266      C2831   1.465       .  S
C2266      C3153   1.403       .  A
C2266      C2267   1.419       .  A
C2267      C2268   1.399       .  A
C2267      C2274   1.521       .  S
C2268      C2269   1.396       .  A
C2268      H2273   1.084       .  S
C2269      C3158   1.413       .  A
C2270      C3157   1.419       .  A
C2270      C2271   1.520       .  S
C2271      F2275   1.385       .  S
C2271      F2276   1.382       .  S
C2271      F2277   1.383       .  S
C2274      F2278   1.383       .  S
C2274      F2279   1.384       .  S
C2274      F2280   1.385       .  S
C2281      C2282   1.409   1_556  A
C2281      C2286   1.420       .  A
C2281      H2288   1.083       .  S
C2282      C2283   1.414       .  A
C2283      C2284   1.397       .  A
C2283      C2290   1.517       .  S
C2284      C2285   1.407       .  A
C2284      H2289   1.081       .  S
C2285      C2286   1.424   1_554  A
C2286      C2287   1.517       .  S
C2287      F2291   1.383       .  S
C2287      F2292   1.383       .  S
C2287      F2293   1.383       .  S
C2290      F2294   1.384       .  S
C2290      F2295   1.380       .  S
C2290      F2296   1.385       .  S
C2297      C2298   1.409   1_554  A
C2297      C2302   1.415       .  A
C2297      H2304   1.083       .  S
C2298      C2299   1.420       .  A
C2299      C2300   1.403       .  A
C2299      C2306   1.524       .  S
C2300      C2301   1.410       .  A
C2300      H2305   1.082       .  S
C2301      C2302   1.423   1_556  A
C2302      C2303   1.519       .  S
C2303      F2307   1.385       .  S
C2303      F2308   1.383       .  S
C2303      F2309   1.383       .  S
C2306      F2310   1.383       .  S
C2306      F2311   1.383       .  S
C2306      F2312   1.385       .  S
C2313      C2314   1.407       .  A
C2313      C2318   1.411       .  A
C2313      H2320   1.083       .  S
C2315      C2316   1.414       .  A
C2315      C2322   1.519       .  S
C2316      H2321   1.083       .  S
C2317      C2318   1.419       .  A
C2318      C2319   1.516       .  S
C2319      F2323   1.385       .  S
C2319      F2324   1.381       .  S
C2319      F2325   1.383       .  S
C2322      F2326   1.383       .  S
C2322      F2327   1.383       .  S
C2322      F2328   1.385       .  S
C2329      C2330   1.411   1_554  A
C2329      C2334   1.423       .  A
C2329      H2336   1.083       .  S
C2330      C2331   1.424       .  A
C2331      C2332   1.425       .  A
C2331      C2338   1.518       .  S
C2332      C2333   1.415   1_556  A
C2332      H2337   1.082       .  S
C2333      C2334   1.428       .  A
C2334      C2335   1.519       .  S
C2335      F2339   1.385       .  S
C2335      F2340   1.384       .  S
C2335      F2341   1.382       .  S
C2338      F2342   1.382       .  S
C2338      F2343   1.384       .  S
C2338      F2344   1.384       .  S
C2345      C2346   1.400   1_556  A
C2345      C2350   1.413       .  A
C2345      H2352   1.083       .  S
C2346      C2347   1.423       .  A
C2347      C2348   1.421       .  A
C2347      C2354   1.519       .  S
C2348      C2349   1.411   1_554  A
C2348      H2353   1.080       .  S
C2349      C2350   1.432       .  A
C2350      C2351   1.521       .  S
C2351      F2355   1.385       .  S
C2351      F2356   1.383       .  S
C2351      F2357   1.383       .  S
C2354      F2358   1.384       .  S
C2354      F2359   1.383       .  S
C2354      F2360   1.382       .  S
C2361      C2366   1.395       .  A
C2361      H2368   1.084   1_554  S
C2362      C2363   1.409       .  A
C2363      C2364   1.402       .  A
C2363      C2370   1.518       .  S
C2364      C2365   1.403       .  A
C2364      H2369   1.084       .  S
C2366      C2367   1.516   1_554  S
C2367      F2371   1.384       .  S
C2367      F2372   1.384   1_556  S
C2367      F2373   1.382       .  S
C2370      F2374   1.383       .  S
C2370      F2375   1.383   1_554  S
C2370      F2376   1.385       .  S
C2377      C2382   1.398       .  A
C2377      H2384   1.084       .  S
C2378      C2379   1.414       .  A
C2379      C2380   1.405       .  A
C2379      C2386   1.513       .  S
C2380      C2381   1.400       .  A
C2380      H2385   1.084       .  S
C2382      C2383   1.513       .  S
C2383      F2387   1.385       .  S
C2383      F2388   1.382       .  S
C2383      F2389   1.380   1_556  S
C2386      F2390   1.382       .  S
C2386      F2391   1.382   1_556  S
C2386      F2392   1.385       .  S
C2393      C3282   1.408       .  A
C2393      C2398   1.414       .  A
C2393      H2400   1.083       .  S
C2394      C2779   1.492       .  S
C2394      C3281   1.410       .  A
C2395      C2396   1.410       .  A
C2395      C2402   1.518       .  S
C2396      H2401   1.083       .  S
C2397      C3286   1.414       .  A
C2398      C3285   1.416       .  A
C2398      C2399   1.516       .  S
C2399      F2403   1.385       .  S
C2399      F2404   1.383       .  S
C2399      F2405   1.383       .  S
C2402      F2406   1.382       .  S
C2402      F2407   1.384       .  S
C2402      F2408   1.384       .  S
C2409      C2410   1.408       .  A
C2409      C2414   1.410       .  A
C2409      H2416   1.083       .  S
C2410      C2411   1.421       .  A
C2411      C2412   1.417       .  A
C2411      C2418   1.518       .  S
C2412      C2413   1.407       .  A
C2412      H2417   1.083       .  S
C2413      C2414   1.417       .  A
C2414      C2415   1.519       .  S
C2415      F2419   1.384       .  S
C2415      F2420   1.382       .  S
C2415      F2421   1.384       .  S
C2418      F2422   1.383       .  S
C2418      F2423   1.384       .  S
C2418      F2424   1.385       .  S
C2425      C2426   1.399       .  A
C2425      C2430   1.412       .  A
C2425      H2432   1.083       .  S
C2426      C2427   1.414       .  A
C2427      C2428   1.416       .  A
C2427      C2434   1.517       .  S
C2428      C2429   1.414       .  A
C2428      H2433   1.082       .  S
C2429      C2430   1.427       .  A
C2430      C2431   1.515       .  S
C2431      F2435   1.385       .  S
C2431      F2436   1.384       .  S
C2431      F2437   1.383       .  S
C2434      F2438   1.383       .  S
C2434      F2439   1.383       .  S
C2434      F2440   1.385       .  S
C2441      C2442   1.400       .  A
C2441      C2446   1.399       .  A
C2441      H2448   1.083       .  S
C2442      C3331   1.422       .  A
C2443      C3330   1.422       .  A
C2443      C2444   1.395   1_565  A
C2443      C2450   1.518   1_565  S
C2444      C3333   1.396       .  A
C2444      H2449   1.083       .  S
C2445      C2935   1.452       .  S
C2445      C3332   1.394       .  A
C2445      C2446   1.413       .  A
C2446      C2447   1.520       .  S
C2447      F2451   1.384       .  S
C2447      F2452   1.383       .  S
C2447      F2453   1.383       .  S
C2450      F2454   1.383   1_545  S
C2450      F2455   1.382       .  S
C2450      F2456   1.385       .  S
C2457      C2458   1.411       .  A
C2457      C2462   1.420       .  A
C2457      H2464   1.078       .  S
C2458      C2459   1.430       .  A
C2459      C2460   1.424       .  A
C2459      C2466   1.520       .  S
C2460      C2461   1.411       .  A
C2460      H2465   1.082       .  S
C2461      C2462   1.428       .  A
C2462      C2463   1.521       .  S
C2463      F2467   1.385       .  S
C2463      F2468   1.383       .  S
C2463      F2469   1.382       .  S
C2466      F2470   1.383       .  S
C2466      F2471   1.384       .  S
C2466      F2472   1.385       .  S
C2473      C2474   1.411       .  A
C2473      C2478   1.418       .  A
C2473      H2480   1.082       .  S
C2474      C2475   1.422       .  A
C2475      C2476   1.420       .  A
C2475      C2482   1.519       .  S
C2476      C2477   1.414       .  A
C2476      H2481   1.082       .  S
C2477      C2478   1.424       .  A
C2478      C2479   1.519       .  S
C2479      F2483   1.385       .  S
C2479      F2484   1.383       .  S
C2479      F2485   1.381       .  S
C2482      F2486   1.382       .  S
C2482      F2487   1.383       .  S
C2482      F2488   1.385       .  S
C2489      C3378   1.399       .  A
C2489      C2494   1.402       .  A
C2489      H2496   1.084       .  S
C2490      C2842   1.463       .  S
C2490      C3377   1.401       .  A
C2490      C2491   1.416       .  A
C2491      C2492   1.398       .  A
C2491      C2498   1.513   1_565  S
C2492      C2493   1.396       .  A
C2492      H2497   1.085   1_565  S
C2493      C3382   1.411       .  A
C2494      C3381   1.415       .  A
C2494      C2495   1.519       .  S
C2495      F2499   1.385       .  S
C2495      F2500   1.382       .  S
C2495      F2501   1.383       .  S
C2498      F2502   1.383       .  S
C2498      F2503   1.381       .  S
C2498      F2504   1.385       .  S
C2505      C2510   1.408       .  A
C2505      H2512   1.082       .  S
C2506      C2507   1.415   1_455  A
C2507      C2508   1.417       .  A
C2507      C2514   1.519       .  S
C2508      C2509   1.417   1_655  A
C2508      H2513   1.082       .  S
C2510      C2511   1.517       .  S
C2511      F2515   1.385       .  S
C2511      F2516   1.383       .  S
C2511      F2517   1.382       .  S
C2514      F2518   1.383       .  S
C2514      F2519   1.383       .  S
C2514      F2520   1.385       .  S
C2521      C2522   1.399       .  A
C2521      C2526   1.393       .  A
C2521      H2528   1.084       .  S
C2522      C2523   1.406       .  A
C2523      C2524   1.390       .  A
C2523      C2530   1.518       .  S
C2524      C2525   1.398       .  A
C2524      H2529   1.084       .  S
C2525      C2526   1.406       .  A
C2526      C2527   1.517       .  S
C2527      F2531   1.385       .  S
C2527      F2532   1.383       .  S
C2527      F2533   1.383       .  S
C2530      F2534   1.383       .  S
C2530      F2535   1.382       .  S
C2530      F2536   1.384       .  S
C2537      C2538   1.401       .  A
C2537      C2542   1.392       .  A
C2537      H2544   1.083       .  S
C2538      C2539   1.422       .  A
C2539      C2540   1.396       .  A
C2539      C2546   1.523       .  S
C2540      C2541   1.401       .  A
C2540      H2545   1.083       .  S
C2541      C2542   1.419       .  A
C2542      C2543   1.521       .  S
C2543      F2547   1.385       .  S
C2543      F2548   1.376       .  S
C2543      F2549   1.383       .  S
C2546      F2550   1.383       .  S
C2546      F2551   1.382       .  S
C2546      F2552   1.385       .  S
C2553      C2558   1.415       .  A
C2553      H2560   1.083       .  S
C2554      C2555   1.423       .  A
C2555      C2556   1.411       .  A
C2555      C2562   1.519       .  S
C2556      C2557   1.408       .  A
C2556      H2561   1.083       .  S
C2558      C2559   1.519       .  S
C2559      F2563   1.385       .  S
C2559      F2564   1.384       .  S
C2559      F2565   1.383       .  S
C2562      F2566   1.384       .  S
C2562      F2567   1.382       .  S
C2562      F2568   1.385       .  S
C2569      C2574   1.413       .  A
C2569      H2576   1.083       .  S
C2570      C3459   1.419   1_545  A
C2571      C3458   1.418       .  A
C2571      C2572   1.408       .  A
C2571      C2578   1.518       .  S
C2572      C2573   1.409       .  A
C2572      H2577   1.084       .  S
C2574      C2575   1.520       .  S
C2575      F2579   1.385       .  S
C2575      F2580   1.383       .  S
C2575      F2581   1.382       .  S
C2578      F2582   1.380       .  S
C2578      F2583   1.383   1_655  S
C2578      F2584   1.384       .  S
C2585      C2586   1.410       .  A
C2585      C2590   1.421       .  A
C2585      H2592   1.083       .  S
C2587      C2588   1.422       .  A
C2587      C2594   1.518       .  S
C2588      H2593   1.082       .  S
C2589      C2590   1.423       .  A
C2590      C2591   1.517       .  S
C2591      F2595   1.385       .  S
C2591      F2596   1.384       .  S
C2591      F2597   1.382       .  S
C2594      F2598   1.383       .  S
C2594      F2599   1.384       .  S
C2594      F2600   1.384       .  S
C2601      C2602   1.412       .  A
C2601      C2606   1.421       .  A
C2601      H2608   1.083       .  S
C2603      C2604   1.424       .  A
C2603      C2610   1.516       .  S
C2604      H2609   1.083       .  S
C2605      C2606   1.419       .  A
C2606      C2607   1.516       .  S
C2607      F2611   1.385       .  S
C2607      F2612   1.383       .  S
C2607      F2613   1.380       .  S
C2610      F2614   1.382       .  S
C2610      F2615   1.384       .  S
C2610      F2616   1.384       .  S
C2617      C2618   1.399   1_545  A
C2617      C2622   1.392       .  A
C2617      H2624   1.084       .  S
C2618      C3507   1.407       .  A
C2619      C3506   1.409       .  A
C2619      C2620   1.397       .  A
C2619      C2626   1.518       .  S
C2620      C2621   1.400       .  A
C2620      H2625   1.084       .  S
C2621      C3510   1.410       .  A
C2622      C3509   1.407   1_545  A
C2622      C2623   1.518       .  S
C2623      F2627   1.385       .  S
C2623      F2628   1.382       .  S
C2623      F2629   1.383       .  S
C2626      F2630   1.383       .  S
C2626      F2631   1.382       .  S
C2626      F2632   1.384       .  S
C2633      C2634   1.403       .  A
C2633      C2638   1.398   1_565  A
C2633      H2640   1.078   1_565  S
C2634      C3523   1.411       .  A
C2635      C3522   1.414       .  A
C2635      C2636   1.395       .  A
C2635      C2642   1.518       .  S
C2636      C2637   1.402       .  A
C2636      H2641   1.085       .  S
C2637      C3526   1.411       .  A
C2638      C3525   1.410   1_545  A
C2638      C2639   1.519       .  S
C2639      F2643   1.384       .  S
C2639      F2644   1.382       .  S
C2639      F2645   1.383       .  S
C2642      F2646   1.384       .  S
C2642      F2647   1.383       .  S
C2642      F2648   1.385       .  S
C2649      C2654   1.416       .  A
C2649      H2656   1.083   1_455  S
C2650      C3539   1.412       .  A
C2651      C3538   1.411       .  A
C2651      C2652   1.411       .  A
C2651      C2658   1.516       .  S
C2652      C2653   1.411       .  A
C2652      H2657   1.083       .  S
C2654      C2655   1.520   1_455  S
C2655      F3547   1.385       .  S
C2655      F3548   1.384   1_655  S
C2655      F2661   1.383       .  S
C2658      F2662   1.383       .  S
C2658      F3551   1.383       .  S
C2658      F3552   1.385       .  S
F2659      C3543   1.384   1_655  S
F2660      C3543   1.383       .  S
F2663      C3546   1.382       .  S
F2664      C3546   1.385       .  S
O2665     Ni2671   1.956       .  S
O2666     Ni2689   1.926       .  S
O2667      H2690   0.966       .  S
C2668      O2677   1.274       .  A
C2668      C3506   1.444       .  S
O2669     Ni2688   1.922   1_455  S
O2670     Ni2688   1.923       .  S
O2670      C2672   1.272   1_655  A
Ni2671     O2674   1.919       .  S
Ni2671     O2676   1.927       .  S
C2672      O2682   1.281       .  A
O2674      C2679   1.276       .  A
C2675      C3538   1.482       .  S
O2676      C2678   1.275       .  A
O2677     Ni2688   1.904       .  S
C2678      O2684   1.279       .  A
C2678      C3474   1.507       .  S
C2679      C3525   1.459       .  S
H2680      O2681   0.967       .  S
O2682     Ni2683   1.962   1_455  S
Ni2683     O2687   1.914       .  S
O2684     Ni2689   1.955       .  S
C2686      C3461   1.515       .  S
O2691     Ni2697   1.924       .  S
O2692     Ni2715   1.929       .  S
O2692      C2701   1.275       .  A
O2693      H2716   0.966       .  S
O2693     Ni2697   1.902       .  S
O2693     Ni2715   1.913       .  S
C2694      O2711   1.276       .  A
C2694      O2703   1.275       .  A
C2694      C3413   1.440       .  S
O2695      C2701   1.274       .  A
O2696     Ni2714   1.923       .  S
Ni2697     O2700   1.903       .  S
Ni2697     O2702   1.912       .  S
C2698      O2708   1.279       .  A
C2698      C3477   1.514       .  S
O2699     Ni2715   1.894       .  S
O2699      C2705   1.272       .  A
O2700      C2705   1.276       .  A
C2701      C3445   1.510       .  S
O2702      C2704   1.270       .  A
O2703     Ni2714   1.901       .  S
C2704      O2710   1.281       .  A
C2704      C3490   1.506       .  S
C2705      C3426   1.460       .  S
H2706      O2707   0.966       .  S
O2707     Ni2709   1.904       .  S
O2707     Ni2714   1.900       .  S
Ni2709     O2713   1.927   1_655  S
Ni2709     O2711   1.902       .  S
O2710     Ni2715   1.964       .  S
C2712      O2713   1.274       .  A
C2712      C3394   1.491       .  S
O2717     Ni2723   1.929       .  S
O2717      C2738   1.274       .  A
O2718     Ni2741   1.895       .  S
O2719      H2742   0.966       .  S
O2719     Ni2735   1.895       .  S
C2720      O2729   1.276       .  A
C2720      C3522   1.469       .  S
O2721     Ni2740   1.913       .  S
O2721      C2727   1.269       .  A
O2722     Ni2740   1.924       .  S
O2722      C2724   1.270       .  A
Ni2723     O2726   1.908       .  S
Ni2723     O2728   1.923       .  S
C2724      O2734   1.276       .  A
C2724      C3365   1.513       .  S
O2726      C2731   1.276       .  A
C2727      C3381   1.462       .  S
O2728      C2730   1.271       .  A
O2729     Ni2740   1.909       .  S
C2730      O2736   1.284       .  A
C2730      C3349   1.528       .  S
C2731      C3509   1.439       .  S
H2732      O2733   0.966       .  S
O2733     Ni2741   1.903       .  S
O2734     Ni2735   1.955       .  S
Ni2735     O2739   1.877       .  S
O2736     Ni2741   1.962       .  S
C2738      C3330   1.475       .  S
O2743     Ni2749   1.933       .  S
O2743      C2764   1.271       .  A
O2744     Ni2767   1.919       .  S
O2744      C2753   1.269       .  A
O2745      H2768   0.966       .  S
O2745     Ni2749   1.915       .  S
O2745     Ni2767   1.915       .  S
O2745     Ni2761   1.897       .  S
C2746      O2763   1.269       .  A
C2746      O2755   1.276       .  A
C2746      C3429   1.456       .  S
O2747     Ni2766   1.941       .  S
O2747      C2753   1.274       .  A
O2748     Ni2766   1.919       .  S
O2748      C2750   1.270       .  A
Ni2749     O2752   1.906       .  S
Ni2749     O2754   1.925       .  S
C2750      O2760   1.283       .  A
C2750      C3346   1.534       .  S
O2751     Ni2767   1.890       .  S
O2751      C2757   1.269       .  A
O2752      C2757   1.273       .  A
C2753      C3314   1.490       .  S
O2754      C2756   1.273       .  A
O2755     Ni2766   1.911       .  S
C2756      O2762   1.277       .  A
C2756      C3362   1.508       .  S
C2757      C3410   1.440       .  S
H2758      O2759   0.966       .  S
O2759     Ni2767   1.895       .  S
O2759     Ni2761   1.920       .  S
O2759     Ni2766   1.906       .  S
O2760     Ni2761   1.973       .  S
Ni2761     O2765   1.934       .  S
Ni2761     O2763   1.887       .  S
O2762     Ni2767   1.952       .  S
C2764      O2765   1.272       .  A
C2764      C3301   1.498       .  S
O2769     Ni2775   1.927       .  S
O2770     Ni2793   1.918       .  S
O2770      C2779   1.269       .  A
O2771     Ni2775   1.901       .  S
O2771     Ni2793   1.907   1_554  S
C2772      O2789   1.277       .  A
C2772      O2781   1.278   1_554  A
C2772      C3250   1.467       .  S
O2773     Ni2792   1.929       .  S
O2774     Ni2792   1.915       .  S
O2774      C2776   1.269       .  A
Ni2775     O2778   1.914       .  S
Ni2775     O2780   1.915       .  S
C2776      O2786   1.281   1_556  A
C2776      C3218   1.511       .  S
O2777     Ni2793   1.913       .  S
O2777      C2783   1.275       .  A
O2778      C2783   1.278   1_554  A
O2780      C2782   1.268       .  A
C2782      O2788   1.278   1_554  A
C2782      C3234   1.512       .  S
C2783      C3266   1.456       .  S
H2784      O2785   0.966       .  S
O2785     Ni2787   1.910   1_556  S
Ni2787     O2791   1.931       .  S
Ni2787     O2789   1.910       .  S
O2788     Ni2793   1.953       .  S
C2790      O2791   1.272       .  A
C2790      C3541   1.506       .  S
O2795     Ni2801   1.924       .  S
O2796     Ni2819   1.936       .  S
O2796      C2805   1.273       .  A
O2797      H2820   0.966       .  S
O2797     Ni2801   1.901       .  S
O2797     Ni2819   1.918   1_556  S
C2798      O2815   1.282   1_554  A
C2798      O2807   1.278       .  A
C2798      C3173   1.512       .  S
O2799      C2805   1.264       .  A
O2800     Ni2818   1.902       .  S
Ni2801     O2804   1.921       .  S
Ni2801     O2806   1.900       .  S
C2802      O2812   1.264       .  A
C2802      C3269   1.459       .  S
O2803     Ni2819   1.940       .  S
O2803      C2809   1.285   1_554  A
O2804      C2809   1.275       .  A
C2805      C3442   1.506       .  S
O2806      C2808   1.267       .  A
O2807     Ni2818   1.910       .  S
C2808      O2814   1.265   1_556  A
C2808      C3253   1.462   1_556  S
C2809      C3189   1.496       .  S
H2810      O2811   0.966       .  S
O2811     Ni2813   1.913   1_554  S
O2811     Ni2818   1.895       .  S
Ni2813     O2817   1.931       .  S
Ni2813     O2815   1.947       .  S
O2814     Ni2819   1.909       .  S
C2816      O2817   1.269       .  A
C2816      C3202   1.499       .  S
O2821     Ni2827   1.936       .  S
O2822     Ni2845   1.896       .  S
O2822      C2831   1.262       .  A
O2823      H2846   0.966       .  S
O2823     Ni2827   1.906       .  S
O2823     Ni2845   1.911   1_554  S
C2824      O2841   1.262       .  A
C2824      O2833   1.273   1_554  A
C2824      C3125   1.447       .  S
O2825     Ni2844   1.922       .  S
O2826     Ni2844   1.911       .  S
O2826      C2828   1.268       .  A
Ni2827     O2830   1.916       .  S
Ni2827     O2832   1.908       .  S
C2828      O2838   1.269   1_556  A
C2828      C3186   1.477       .  S
O2829     Ni2845   1.875       .  S
O2829      C2835   1.261       .  A
O2830      C2835   1.274   1_554  A
O2832      C2834   1.270       .  A
O2833     Ni2844   1.910       .  S
C2834      O2840   1.274   1_554  A
C2834      C3170   1.500       .  S
C2835      C3138   1.445       .  S
H2836      O2837   0.966       .  S
O2837     Ni2839   1.904   1_556  S
O2837     Ni2844   1.917       .  S
O2838     Ni2839   1.929       .  S
Ni2839     O2843   1.883       .  S
Ni2839     O2841   1.874       .  S
O2840     Ni2845   1.948       .  S
C2842      O2843   1.258       .  A
O2847     Ni2853   1.909       .  S
O2847      C2868   1.268       .  A
O2848     Ni2871   1.943       .  S
O2848      C2857   1.277       .  A
O2849      H2872   0.966       .  S
O2849     Ni2853   1.905       .  S
O2849     Ni2871   1.903   1_554  S
O2849     Ni2865   1.918       .  S
C2850      O2867   1.283   1_556  A
C2850      O2859   1.273       .  A
C2850      C3141   1.450       .  S
O2851     Ni2870   1.908       .  S
O2851      C2857   1.265       .  A
O2852     Ni2870   1.916       .  S
O2852      C2854   1.267       .  A
Ni2853     O2856   1.903       .  S
Ni2853     O2858   1.918       .  S
C2854      O2864   1.283   1_556  A
C2854      C3237   1.523       .  S
O2855     Ni2871   1.894   1_554  S
O2855      C2861   1.279       .  A
O2856      C2861   1.274       .  A
C2857      C3106   1.498       .  S
O2858      C2860   1.270       .  A
O2859     Ni2870   1.893       .  S
C2860      O2866   1.280   1_554  A
C2860      C3221   1.519       .  S
C2861      C3122   1.439       .  S
H2862      O2863   0.966       .  S
O2863     Ni2871   1.909       .  S
O2863     Ni2865   1.903   1_556  S
O2863     Ni2870   1.893       .  S
O2864     Ni2865   1.961       .  S
Ni2865     O2869   1.937       .  S
Ni2865     O2867   1.913       .  S
O2866     Ni2871   1.952       .  S
C2868      O2869   1.275       .  A
C2868      C3317   1.509       .  S
O2873     Ni2879   1.911       .  S
O2874     Ni2897   1.926       .  S
O2875      H2898   0.966   1_545  S
C2876      O2893   1.298       .  A
O2877     Ni2896   1.924   1_565  S
O2878     Ni2896   1.914   1_565  S
O2878      C2880   1.271       .  A
Ni2879     O2882   1.937       .  S
Ni2879     O2884   1.901       .  S
C2880      O2890   1.279       .  A
C2880      C3045   1.518       .  S
O2882      C2887   1.285       .  A
C2883      C3285   1.480       .  S
O2884      C2886   1.264       .  A
O2885     Ni2896   1.930       .  S
C2886      O2892   1.285       .  A
C2886      C3061   1.525       .  S
H2888      O2889   0.966       .  S
O2890     Ni2891   1.957   1_565  S
Ni2891     O2895   1.953       .  S
O2892     Ni2897   1.973       .  S
C2894      C3458   1.489       .  S
O2899     Ni2905   1.923       .  S
O2900     Ni2923   1.938       .  S
O2901     Ni2905   1.891       .  S
O2901     Ni2923   1.899       .  S
C2902      O2919   1.272       .  A
C2902      O2911   1.278       .  A
C2902      C2981   1.471       .  S
O2903     Ni2922   1.913       .  S
O2903      C2909   1.268   1_655  A
O2904     Ni2922   1.918       .  S
O2904      C2906   1.271       .  A
Ni2905     O2908   1.907       .  S
Ni2905     O2910   1.907       .  S
C2906      O2916   1.284       .  A
C2906      C3013   1.518       .  S
O2907     Ni2923   1.885       .  S
O2907      C2913   1.273       .  A
O2908      C2913   1.279       .  A
C2909      C3397   1.510       .  S
O2910      C2912   1.269       .  A
O2911     Ni2922   1.901       .  S
C2912      O2918   1.286       .  A
C2912      C3026   1.511       .  S
C2913      C2994   1.452       .  S
H2914      O2915   0.966       .  S
O2915     Ni2917   1.905       .  S
O2915     Ni2922   1.896       .  S
O2916     Ni2917   1.966       .  S
Ni2917     O2921   1.933       .  S
Ni2917     O2919   1.897       .  S
O2918     Ni2923   1.970       .  S
C2920      O2921   1.273       .  A
C2920      C3205   1.495       .  S
O2925     Ni2931   1.920       .  S
O2926     Ni2949   1.888       .  S
O2926      C2935   1.262       .  A
O2927      H2950   0.966       .  S
O2927     Ni2931   1.886       .  S
O2927     Ni2949   1.890       .  S
C2928      O2945   1.265       .  A
C2928      O2937   1.278       .  A
C2928      C2997   1.439       .  S
O2929     Ni2948   1.918       .  S
O2930     Ni2948   1.914       .  S
O2930      C2932   1.266       .  A
Ni2931     O2934   1.896       .  S
Ni2931     O2936   1.946       .  S
C2932      O2942   1.284   1_565  A
C2932      C3093   1.532       .  S
O2933     Ni2949   1.895       .  S
O2933      C2939   1.273       .  A
O2934      C2939   1.279       .  A
O2937     Ni2948   1.903       .  S
C2938      O2944   1.276       .  A
C2938      C3077   1.545       .  S
C2939      C2978   1.468       .  S
H2940      O2941   0.967       .  S
O2941     Ni2943   1.900       .  S
O2941     Ni2948   1.887       .  S
O2942     Ni2943   1.988   1_545  S
Ni2943     O2947   1.890   1_565  S
Ni2943     O2945   1.873       .  S
C2946      O2947   1.264       .  A
C2946      C3157   1.470       .  S
O2951     Ni2957   1.940       .  S
O2951      C2972   1.275       .  A
O2952     Ni2975   1.948       .  S
O2952      C2961   1.281       .  A
O2953      H2976   0.966       .  S
O2953     Ni2957   1.901       .  S
O2953     Ni2975   1.920       .  S
O2953     Ni2969   1.943       .  S
C2954      O2971   1.289       .  A
C2954      O2963   1.281       .  A
C2954      C3010   1.515       .  S
O2955     Ni2974   1.921       .  S
O2955      C2961   1.266       .  A
O2956     Ni2974   1.904       .  S
O2956      C2958   1.267       .  A
Ni2957     O2960   1.931       .  S
Ni2957     O2962   1.901       .  S
C2958      O2968   1.280       .  A
C2958      C3042   1.498       .  S
O2959     Ni2975   1.959       .  S
O2959      C2965   1.289       .  A
O2960      C2965   1.279       .  A
C2961      C3109   1.510       .  S
O2962      C2964   1.272       .  A
O2963     Ni2974   1.933       .  S
C2964      O2970   1.284       .  A
C2964      C3058   1.511       .  S
C2965      C3029   1.512       .  S
H2966      O2967   0.966       .  S
O2967     Ni2975   1.951       .  S
O2967     Ni2969   1.908       .  S
O2967     Ni2974   1.906       .  S
O2968     Ni2969   1.960       .  S
Ni2969     O2973   1.933       .  S
Ni2969     O2971   1.963       .  S
O2970     Ni2975   1.972       .  S
C2972      O2973   1.276       .  A
C2972      C3298   1.508       .  S
C2977      C2978   1.394       .  A
C2977      C2982   1.397       .  A
C2977      H2984   1.083       .  S
C2978      C2979   1.403       .  A
C2979      C2980   1.392       .  A
C2979      C2986   1.511       .  S
C2980      C2981   1.411       .  A
C2980      H2985   1.084       .  S
C2981      C2982   1.434       .  A
C2982      C2983   1.526       .  S
C2983      F2987   1.385       .  S
C2983      F2988   1.377       .  S
C2983      F2989   1.384       .  S
C2986      F2990   1.385       .  S
C2986      F2991   1.383       .  S
C2986      F2992   1.383       .  S
C2993      C2994   1.405       .  A
C2993      C2998   1.395       .  A
C2993      H3000   1.083       .  S
C2994      C2995   1.422       .  A
C2995      C2996   1.385       .  A
C2995      C3002   1.525       .  S
C2996      C2997   1.393       .  A
C2996      H3001   1.084       .  S
C2997      C2998   1.409       .  A
C2998      C2999   1.519       .  S
C2999      F3003   1.384       .  S
C2999      F3004   1.382       .  S
C2999      F3005   1.383       .  S
C3002      F3006   1.374       .  S
C3002      F3007   1.385       .  S
C3002      F3008   1.383       .  S
C3009      C3010   1.416       .  A
C3009      C3014   1.423       .  A
C3009      H3016   1.083       .  S
C3010      C3011   1.418       .  A
C3011      C3012   1.418       .  A
C3011      C3018   1.519       .  S
C3012      C3013   1.416       .  A
C3012      H3017   1.082       .  S
C3013      C3014   1.418       .  A
C3014      C3015   1.515       .  S
C3015      F3019   1.384       .  S
C3015      F3020   1.383       .  S
C3015      F3021   1.378       .  S
C3018      F3022   1.382       .  S
C3018      F3023   1.384       .  S
C3018      F3024   1.384       .  S
C3025      C3026   1.416       .  A
C3025      C3030   1.418       .  A
C3025      H3032   1.083       .  S
C3026      C3027   1.414       .  A
C3027      C3028   1.419       .  A
C3027      C3034   1.514       .  S
C3028      C3029   1.416       .  A
C3028      H3033   1.083       .  S
C3029      C3030   1.417       .  A
C3030      C3031   1.518       .  S
C3031      F3035   1.385       .  S
C3031      F3036   1.383       .  S
C3031      F3037   1.382       .  S
C3034      F3038   1.377       .  S
C3034      F3039   1.383       .  S
C3034      F3040   1.385       .  S
C3041      C3042   1.408       .  A
C3041      C3046   1.423       .  A
C3041      H3048   1.083       .  S
C3042      C3043   1.415       .  A
C3043      C3044   1.411       .  A
C3043      C3050   1.520       .  S
C3044      C3045   1.414       .  A
C3044      H3049   1.082       .  S
C3045      C3046   1.425       .  A
C3046      C3047   1.516       .  S
C3047      F3051   1.384       .  S
C3047      F3052   1.383       .  S
C3047      F3053   1.383       .  S
C3050      F3054   1.380       .  S
C3050      F3055   1.384       .  S
C3050      F3056   1.384       .  S
C3057      C3058   1.399       .  A
C3057      C3062   1.409       .  A
C3057      H3064   1.083       .  S
C3058      C3059   1.425       .  A
C3059      C3060   1.428       .  A
C3059      C3066   1.515       .  S
C3060      C3061   1.412       .  A
C3060      H3065   1.082       .  S
C3061      C3062   1.439       .  A
C3062      C3063   1.526       .  S
C3063      F3067   1.385       .  S
C3063      F3068   1.383       .  S
C3063      F3069   1.381       .  S
C3066      F3070   1.379       .  S
C3066      F3071   1.383       .  S
C3066      F3072   1.385       .  S
C3073      C3078   1.426       .  A
C3073      H3080   1.083       .  S
C3074      C3075   1.424       .  A
C3075      C3076   1.432       .  A
C3075      C3082   1.516   1_545  S
C3076      C3077   1.419       .  A
C3076      H3081   1.081       .  S
C3078      C3079   1.520       .  S
C3079      F3083   1.385       .  S
C3079      F3084   1.382       .  S
C3082      F3087   1.383   1_565  S
C3082      F3088   1.384       .  S
C3089      C3090   1.407   1_565  A
C3089      C3094   1.418       .  A
C3089      H3096   1.082       .  S
C3091      C3092   1.432       .  A
C3091      C3098   1.515       .  S
C3092      H3097   1.082       .  S
C3093      C3094   1.434       .  A
C3094      C3095   1.525       .  S
C3095      F3099   1.385       .  S
C3095      F3100   1.383       .  S
C3095      F3101   1.383       .  S
C3098      F3102   1.383       .  S
C3098      F3103   1.380       .  S
C3098      F3104   1.385       .  S
C3105      C3106   1.400       .  A
C3105      C3110   1.413       .  A
C3105      H3112   1.083       .  S
C3106      C3107   1.422       .  A
C3107      C3108   1.414       .  A
C3107      C3114   1.516       .  S
C3108      C3109   1.406       .  A
C3108      H3113   1.083       .  S
C3109      C3110   1.434       .  A
C3110      C3111   1.523       .  S
C3111      F3115   1.385       .  S
C3111      F3116   1.382       .  S
C3111      F3117   1.383       .  S
C3114      F3118   1.384       .  S
C3114      F3119   1.382       .  S
C3114      F3120   1.385       .  S
C3121      C3122   1.398       .  A
C3121      C3126   1.389       .  A
C3121      H3128   1.085   1_554  S
C3122      C3123   1.409       .  A
C3123      C3124   1.395       .  A
C3123      C3130   1.519       .  S
C3124      C3125   1.403       .  A
C3124      H3129   1.083       .  S
C3125      C3126   1.408       .  A
C3126      C3127   1.515   1_554  S
C3127      F3131   1.384       .  S
C3127      F3132   1.384       .  S
C3127      F3133   1.383       .  S
C3130      F3134   1.382       .  S
C3130      F3135   1.384       .  S
C3130      F3136   1.385       .  S
C3137      C3138   1.403       .  A
C3137      C3142   1.399       .  A
C3137      H3144   1.084       .  S
C3138      C3139   1.404       .  A
C3139      C3140   1.388       .  A
C3139      C3146   1.514   1_556  S
C3140      C3141   1.403       .  A
C3140      H3145   1.085   1_556  S
C3141      C3142   1.413       .  A
C3142      C3143   1.519       .  S
C3143      F3147   1.385       .  S
C3143      F3148   1.383       .  S
C3143      F3149   1.382       .  S
C3146      F3150   1.383       .  S
C3146      F3151   1.384       .  S
C3146      F3152   1.384   1_554  S
C3153      C3158   1.402       .  A
C3153      H3160   1.084       .  S
C3154      C3155   1.414       .  A
C3155      C3156   1.401       .  A
C3155      C3162   1.520       .  S
C3156      C3157   1.402   1_565  A
C3156      H3161   1.083       .  S
C3158      C3159   1.519       .  S
C3159      F3163   1.385       .  S
C3159      F3164   1.383       .  S
C3159      F3165   1.383       .  S
C3162      F3166   1.383       .  S
C3162      F3167   1.384       .  S
C3162      F3168   1.384       .  S
C3169      C3170   1.412   1_556  A
C3169      C3174   1.422       .  A
C3169      H3176   1.083       .  S
C3170      C3171   1.417       .  A
C3171      C3172   1.400       .  A
C3171      C3178   1.521       .  S
C3172      C3173   1.411       .  A
C3172      H3177   1.081       .  S
C3173      C3174   1.427   1_554  A
C3174      C3175   1.519       .  S
C3175      F3179   1.385       .  S
C3175      F3180   1.383       .  S
C3175      F3181   1.383       .  S
C3178      F3182   1.384       .  S
C3178      F3183   1.382       .  S
C3178      F3184   1.385       .  S
C3185      C3186   1.394       .  A
C3185      C3190   1.405       .  A
C3185      H3192   1.084       .  S
C3186      C3187   1.414   1_556  A
C3187      C3188   1.414       .  A
C3187      C3194   1.515       .  S
C3188      C3189   1.408   1_554  A
C3188      H3193   1.083       .  S
C3189      C3190   1.430       .  A
C3190      C3191   1.522       .  S
C3191      F3195   1.385       .  S
C3191      F3196   1.378       .  S
C3191      F3197   1.382       .  S
C3194      F3198   1.382       .  S
C3194      F3199   1.383       .  S
C3194      F3200   1.384       .  S
C3201      C3202   1.408       .  A
C3201      C3206   1.410       .  A
C3201      H3208   1.083       .  S
C3203      C3204   1.412       .  A
C3203      C3210   1.519       .  S
C3204      H3209   1.083       .  S
C3205      C3206   1.418       .  A
C3206      C3207   1.515       .  S
C3207      F3211   1.385       .  S
C3207      F3212   1.382       .  S
C3207      F3213   1.384       .  S
C3210      F3214   1.383       .  S
C3210      F3215   1.384       .  S
C3210      F3216   1.385       .  S
C3217      C3218   1.409   1_554  A
C3217      C3222   1.419       .  A
C3217      H3224   1.083       .  S
C3218      C3219   1.421       .  A
C3219      C3220   1.418       .  A
C3219      C3226   1.518       .  S
C3220      C3221   1.413   1_556  A
C3220      H3225   1.082       .  S
C3221      C3222   1.429       .  A
C3222      C3223   1.521       .  S
C3223      F3227   1.385       .  S
C3223      F3228   1.384       .  S
C3223      F3229   1.383       .  S
C3226      F3230   1.382       .  S
C3226      F3231   1.384       .  S
C3226      F3232   1.385       .  S
C3233      C3234   1.405   1_556  A
C3233      C3238   1.417       .  A
C3233      H3240   1.082       .  S
C3234      C3235   1.422       .  A
C3235      C3236   1.420       .  A
C3235      C3242   1.519       .  S
C3236      C3237   1.411   1_554  A
C3236      H3241   1.076       .  S
C3237      C3238   1.432       .  A
C3238      C3239   1.521       .  S
C3239      F3243   1.385       .  S
C3239      F3244   1.383       .  S
C3239      F3245   1.383       .  S
C3242      F3246   1.384       .  S
C3242      F3247   1.382       .  S
C3242      F3248   1.380       .  S
C3249      C3254   1.397       .  A
C3249      H3256   1.084       .  S
C3250      C3251   1.411       .  A
C3251      C3252   1.403       .  A
C3251      C3258   1.517       .  S
C3252      C3253   1.404       .  A
C3252      H3257   1.083       .  S
C3254      C3255   1.517       .  S
C3255      F3259   1.384   1_554  S
C3255      F3260   1.383       .  S
C3255      F3261   1.383   1_554  S
C3258      F3262   1.383       .  S
C3258      F3263   1.384       .  S
C3258      F3264   1.384       .  S
C3265      C3270   1.398       .  A
C3265      H3272   1.084   1_556  S
C3266      C3267   1.413       .  A
C3267      C3268   1.402       .  A
C3267      C3274   1.513       .  S
C3268      C3269   1.398       .  A
C3268      H3273   1.084       .  S
C3270      C3271   1.518   1_556  S
C3271      F3275   1.385       .  S
C3271      F3276   1.383   1_554  S
C3271      F3277   1.381       .  S
C3274      F3278   1.382       .  S
C3274      F3279   1.381   1_556  S
C3274      F3280   1.385       .  S
C3281      C3286   1.412       .  A
C3281      H3288   1.083       .  S
C3283      C3284   1.407       .  A
C3283      C3290   1.520       .  S
C3284      H3289   1.084       .  S
C3286      C3287   1.517       .  S
C3287      F3291   1.384       .  S
C3287      F3292   1.384       .  S
C3287      F3293   1.383       .  S
C3290      F3294   1.383   1_455  S
C3290      F3295   1.384       .  S
C3290      F3296   1.385       .  S
C3297      C3298   1.411       .  A
C3297      C3302   1.414       .  A
C3297      H3304   1.083       .  S
C3298      C3299   1.423       .  A
C3299      C3300   1.418       .  A
C3299      C3306   1.518       .  S
C3300      C3301   1.406       .  A
C3300      H3305   1.083       .  S
C3301      C3302   1.418       .  A
C3302      C3303   1.520       .  S
C3303      F3307   1.385       .  S
C3303      F3308   1.382       .  S
C3303      F3309   1.383       .  S
C3306      F3310   1.383       .  S
C3306      F3311   1.383       .  S
C3306      F3312   1.384       .  S
C3313      C3314   1.400       .  A
C3313      C3318   1.411       .  A
C3313      H3320   1.083       .  S
C3314      C3315   1.415       .  A
C3315      C3316   1.416       .  A
C3315      C3322   1.517       .  S
C3316      C3317   1.412       .  A
C3316      H3321   1.083       .  S
C3317      C3318   1.425       .  A
C3318      C3319   1.512       .  S
C3319      F3323   1.385       .  S
C3319      F3324   1.381       .  S
C3319      F3325   1.383       .  S
C3322      F3326   1.383       .  S
C3322      F3327   1.383       .  S
C3322      F3328   1.384       .  S
C3329      C3330   1.404       .  A
C3329      C3334   1.402       .  A
C3329      H3336   1.083       .  S
C3331      C3332   1.399       .  A
C3331      C3338   1.520       .  S
C3332      H3337   1.083       .  S
C3333      C3334   1.418   1_545  A
C3334      C3335   1.521       .  S
C3335      F3339   1.385       .  S
C3335      F3340   1.384       .  S
C3335      F3341   1.383   1_565  S
C3338      F3342   1.383       .  S
C3338      F3343   1.383       .  S
C3338      F3344   1.385       .  S
C3345      C3346   1.412       .  A
C3345      C3350   1.423       .  A
C3345      H3352   1.081       .  S
C3346      C3347   1.435       .  A
C3347      C3348   1.422       .  A
C3347      C3354   1.522       .  S
C3348      C3349   1.408       .  A
C3348      H3353   1.082       .  S
C3349      C3350   1.430       .  A
C3350      C3351   1.521       .  S
C3351      F3355   1.385       .  S
C3351      F3356   1.384       .  S
C3351      F3357   1.383       .  S
C3354      F3358   1.384       .  S
C3354      F3359   1.383       .  S
C3354      F3360   1.385       .  S
C3361      C3362   1.410       .  A
C3361      C3366   1.418       .  A
C3361      H3368   1.083       .  S
C3362      C3363   1.419       .  A
C3363      C3364   1.421       .  A
C3363      C3370   1.518       .  S
C3364      C3365   1.414       .  A
C3364      H3369   1.083       .  S
C3365      C3366   1.420       .  A
C3366      C3367   1.517       .  S
C3367      F3371   1.385       .  S
C3367      F3372   1.383       .  S
C3367      F3373   1.379       .  S
C3370      F3374   1.383       .  S
C3370      F3375   1.384       .  S
C3370      F3376   1.385       .  S
C3377      C3382   1.400       .  A
C3377      H3384   1.084       .  S
C3378      C3379   1.414       .  A
C3379      C3380   1.404       .  A
C3379      C3386   1.514       .  S
C3380      C3381   1.399       .  A
C3380      H3385   1.084       .  S
C3382      C3383   1.517       .  S
C3383      F3387   1.385       .  S
C3383      F3388   1.383       .  S
C3383      F3389   1.383       .  S
C3386      F3390   1.379       .  S
C3386      F3391   1.383       .  S
C3386      F3392   1.385       .  S
C3393      C3398   1.411       .  A
C3393      H3400   1.082       .  S
C3394      C3395   1.412   1_455  A
C3395      C3396   1.414       .  A
C3395      C3402   1.518       .  S
C3396      C3397   1.416   1_655  A
C3396      H3401   1.082       .  S
C3398      C3399   1.518       .  S
C3399      F3403   1.385       .  S
C3399      F3404   1.381       .  S
C3399      F3405   1.383       .  S
C3402      F3406   1.383       .  S
C3402      F3407   1.383       .  S
C3402      F3408   1.384       .  S
C3409      C3410   1.401       .  A
C3409      C3414   1.397       .  A
C3409      H3416   1.084       .  S
C3410      C3411   1.405       .  A
C3411      C3412   1.393       .  A
C3411      C3418   1.517       .  S
C3412      C3413   1.400       .  A
C3412      H3417   1.085       .  S
C3413      C3414   1.408       .  A
C3414      C3415   1.517       .  S
C3415      F3419   1.384       .  S
C3415      F3420   1.383       .  S
C3415      F3421   1.383       .  S
C3418      F3422   1.382       .  S
C3418      F3423   1.384       .  S
C3418      F3424   1.385       .  S
C3425      C3426   1.402       .  A
C3425      C3430   1.393       .  A
C3425      H3432   1.083       .  S
C3426      C3427   1.419       .  A
C3427      C3428   1.395       .  A
C3427      C3434   1.522       .  S
C3428      C3429   1.400       .  A
C3428      H3433   1.084       .  S
C3429      C3430   1.415       .  A
C3430      C3431   1.521       .  S
C3431      F3435   1.385       .  S
C3431      F3436   1.377       .  S
C3431      F3437   1.383       .  S
C3434      F3438   1.382       .  S
C3434      F3439   1.380       .  S
C3434      F3440   1.385       .  S
C3441      C3446   1.415       .  A
C3441      H3448   1.083       .  S
C3442      C3443   1.426       .  A
C3443      C3444   1.415       .  A
C3443      C3450   1.521       .  S
C3444      C3445   1.409       .  A
C3444      H3449   1.083       .  S
C3446      C3447   1.521       .  S
C3447      F3451   1.385       .  S
C3447      F3452   1.384       .  S
C3447      F3453   1.383       .  S
C3450      F3454   1.384       .  S
C3450      F3455   1.383       .  S
C3450      F3456   1.385       .  S
C3457      C3462   1.413       .  A
C3457      H3464   1.083       .  S
C3459      C3460   1.407       .  A
C3459      C3466   1.519       .  S
C3460      C3461   1.410       .  A
C3460      H3465   1.084       .  S
C3462      C3463   1.518       .  S
C3463      F3467   1.385       .  S
C3463      F3468   1.383       .  S
C3463      F3469   1.381       .  S
C3466      F3470   1.378       .  S
C3466      F3471   1.384   1_655  S
C3466      F3472   1.383       .  S
C3473      C3474   1.411       .  A
C3473      C3478   1.420       .  A
C3473      H3480   1.083       .  S
C3475      C3476   1.418       .  A
C3475      C3482   1.518       .  S
C3476      H3481   1.082       .  S
C3477      C3478   1.420       .  A
C3478      C3479   1.517       .  S
C3479      F3483   1.385       .  S
C3479      F3484   1.383       .  S
C3479      F3485   1.382       .  S
C3482      F3486   1.382       .  S
C3482      F3487   1.383       .  S
C3482      F3488   1.385       .  S
C3489      C3490   1.410       .  A
C3489      C3494   1.417       .  A
C3489      H3496   1.083       .  S
C3491      C3492   1.420       .  A
C3491      C3498   1.517       .  S
C3492      H3497   1.083       .  S
C3493      C3494   1.420       .  A
C3494      C3495   1.517       .  S
C3495      F3499   1.385       .  S
C3495      F3500   1.383       .  S
C3495      F3501   1.378       .  S
C3498      F3502   1.382       .  S
C3498      F3503   1.384       .  S
C3498      F3504   1.384       .  S
C3505      C3506   1.399       .  A
C3505      C3510   1.395       .  A
C3505      H3512   1.084       .  S
C3507      C3508   1.395       .  A
C3507      C3514   1.517       .  S
C3508      C3509   1.401       .  A
C3508      H3513   1.084       .  S
C3510      C3511   1.519       .  S
C3511      F3515   1.385       .  S
C3511      F3516   1.383       .  S
C3511      F3517   1.384       .  S
C3514      F3518   1.383       .  S
C3514      F3519   1.383       .  S
C3514      F3520   1.385       .  S
C3521      C3522   1.409       .  A
C3521      C3526   1.402       .  A
C3521      H3528   1.083       .  S
C3523      C3524   1.398       .  A
C3523      C3530   1.519       .  S
C3524      C3525   1.405       .  A
C3524      H3529   1.084       .  S
C3526      C3527   1.519       .  S
C3527      F3531   1.385       .  S
C3527      F3532   1.382       .  S
C3527      F3533   1.383       .  S
C3530      F3534   1.384       .  S
C3530      F3535   1.382       .  S
C3530      F3536   1.385       .  S
C3537      C3542   1.415       .  A
C3537      H3544   1.083       .  S
C3539      C3540   1.406       .  A
C3539      C3546   1.518       .  S
C3540      C3541   1.413   1_545  A
C3540      H3545   1.082       .  S
C3542      C3543   1.518       .  S
C3543      F3549   1.383   1_455  S
C3546      F3550   1.383       .  S
