geometry optimzed in LAMMPS
_audit_creation_date              2020-12-01 
_audit_creation_method            'lammps2cif' 
_symmetry_space_group_name_H-M    'P1' 
_symmetry_Int_Tables_number       1 
_symmetry_cell_setting            triclinic 
loop_ 
_symmetry_equiv_pos_as_xyz 
  x,y,z 
_cell_length_a                    33.15258237 
_cell_length_b                    33.2135927856745 
_cell_length_c                    29.697275564663116 
_cell_angle_alpha                 90.11555818459044 
_cell_angle_beta                  89.98486004361064 
_cell_angle_gamma                 90.01057457694893 
loop_ 
_atom_site_label 
_atom_site_type_symbol 
_atom_site_fract_x 
_atom_site_fract_y 
_atom_site_fract_z 
_atom_site_charge 
O1          O  0.45893048  0.78396931  0.45141877    -0.73900
O2          O  0.54103237  0.78301020  0.04283270    -0.74000
O3          O  0.45872712  0.78299887  0.04244412    -0.74000
O4          O  0.54118157  0.78413051  0.45109345    -0.74100
O5          O  0.54068664  0.85132058  0.45152592    -0.74000
O6          O  0.45956590  0.85017819  0.04314504    -0.74000
O7          O  0.54077144  0.85018721  0.04314424    -0.73900
O8          O  0.45935421  0.85115694  0.45158610    -0.74000
Ni9        Ni  0.50004882  0.78078398  0.99722915     1.25400
Ni10       Ni  0.50003150  0.85340838  0.49709755     1.25400
C11         C  0.44551198  0.81766030  0.43677892     0.88300
C12         C  0.55437622  0.81666282  0.05790892     0.88200
C13         C  0.44535944  0.81667396  0.05735705     0.88200
C14         C  0.55466110  0.81788979  0.43668967     0.88400
C15         C  0.65040161  0.79144632  0.37347229     0.03600
C16         C  0.65206128  0.82350423  0.34251895    -0.12500
C17         C  0.62109324  0.85239285  0.34103221     0.01100
C18         C  0.58902077  0.84984303  0.37158903    -0.11000
C19         C  0.58725807  0.81859494  0.40304531     0.03600
C20         C  0.61762330  0.78919914  0.40346081    -0.10500
H21         H  0.67662067  0.82531497  0.31856635     0.09200
H22         H  0.56535894  0.87237145  0.37101310     0.06700
H23         H  0.61638752  0.76555580  0.42845679     0.06600
C24         C  0.35169247  0.78964057  0.37078242     0.03600
C25         C  0.38357467  0.78816559  0.40203652    -0.12500
C26         C  0.41338265  0.81815744  0.40259894     0.01100
C27         C  0.41174940  0.84952550  0.37125925    -0.11000
C28         C  0.38038619  0.85149019  0.33982303     0.03600
C29         C  0.35037479  0.82170580  0.33983254    -0.10500
H30         H  0.38475908  0.76461116  0.42708152     0.09200
H31         H  0.43488857  0.87260012  0.37146456     0.06700
H32         H  0.32672135  0.82316918  0.31480808     0.06600
C33         C  0.64683920  0.78852959  0.12598789     0.03600
C34         C  0.64916986  0.82169753  0.15536165    -0.12500
C35         C  0.61983728  0.85208996  0.15408164     0.01100
C36         C  0.58860834  0.84983690  0.12248648    -0.11000
C37         C  0.58612745  0.81729543  0.09255387     0.03600
C38         C  0.61487910  0.78643231  0.09489250    -0.10500
H39         H  0.67280092  0.82327791  0.18044920     0.09200
H40         H  0.56612309  0.87350987  0.12124592     0.06700
H41         H  0.61310033  0.76166545  0.07123409     0.06600
C42         C  0.34953375  0.79078544  0.12093792     0.03600
C43         C  0.38221864  0.78809206  0.09078643    -0.12500
C44         C  0.41272430  0.81743215  0.09097643     0.01100
C45         C  0.41108282  0.84898873  0.12223688    -0.11000
C46         C  0.37910420  0.85192119  0.15281559     0.03600
C47         C  0.34815754  0.82305200  0.15170475    -0.10500
H48         H  0.38376982  0.76356986  0.06676438     0.09200
H49         H  0.43476914  0.87150337  0.12263518     0.06700
H50         H  0.32320606  0.82571575  0.17504026     0.06600
O51         O  0.58683015  0.89899431  0.20171894    -0.73900
O52         O  0.58676003  0.97963282  0.29349033    -0.74000
O53         O  0.58626262  0.98024296  0.20250144    -0.74000
O54         O  0.58748160  0.89833390  0.29263848    -0.74100
O55         O  0.65477884  0.89854069  0.29225835    -0.74000
O56         O  0.65357425  0.98092561  0.20201402    -0.74000
O57         O  0.65405208  0.98068370  0.29257104    -0.73900
O58         O  0.65414971  0.89867865  0.20170427    -0.74000
Ni59       Ni  0.58446083  0.93928259  0.24759348     1.25400
Ni60       Ni  0.65657087  0.93973474  0.24709013     1.25400
C61         C  0.62040423  0.88504271  0.18720527     0.88300
C62         C  0.62033615  0.99383011  0.30772974     0.88200
C63         C  0.61968559  0.99441788  0.18782493     0.88200
C64         C  0.62123786  0.88468448  0.30703465     0.88400
O65         O  0.34596639  0.89776360  0.29203320    -0.73900
O66         O  0.34573029  0.98032771  0.20202088    -0.74000
O67         O  0.34534785  0.89816385  0.20151334    -0.74000
O68         O  0.34603754  0.98006631  0.29272314    -0.74100
O69         O  0.41332091  0.97960922  0.29255165    -0.74000
O70         O  0.41263948  0.89843430  0.20089329    -0.74000
O71         O  0.41302883  0.97974867  0.20136851    -0.73900
O72         O  0.41327162  0.89818335  0.29182489    -0.74000
Ni73       Ni  0.34334893  0.93910257  0.24710020     1.25400
Ni74       Ni  0.41543853  0.93900140  0.24665039     1.25400
C75         C  0.37975934  0.88412379  0.30635258     0.88300
C76         C  0.37941671  0.99375891  0.18710290     0.88200
C77         C  0.37893166  0.88452731  0.18657397     0.88200
C78         C  0.37979684  0.99359762  0.30734553     0.88400
O79         O  0.45886950  0.02723645  0.04211267    -0.73900
O80         O  0.54085237  0.02755676  0.45285991    -0.74000
O81         O  0.54023178  0.02719127  0.04262561    -0.74000
O82         O  0.45970070  0.02749752  0.45260869    -0.74100
O83         O  0.45918550  0.09467624  0.45288565    -0.74000
O84         O  0.54058808  0.09437016  0.04215078    -0.74000
O85         O  0.54145348  0.09474614  0.45320727    -0.73900
O86         O  0.45825384  0.09439955  0.04160776    -0.74000
Ni87       Ni  0.49985952  0.02454146  0.99687554     1.25400
Ni88       Ni  0.49978652  0.09651457  0.99650408     1.25400
C89         C  0.44478050  0.06079412  0.05652038     0.88300
C90         C  0.55474757  0.06102490  0.43827792     0.88200
C91         C  0.55392172  0.06080700  0.05725009     0.88200
C92         C  0.44590343  0.06097331  0.43787301     0.88400
C93         C  0.35127691  0.08785850  0.37289247     0.03600
C94         C  0.34967435  0.05548364  0.34218023    -0.12500
C95         C  0.38027882  0.02619585  0.34127921     0.01100
C96         C  0.41207933  0.02875053  0.37222518    -0.11000
C97         C  0.41378969  0.06032533  0.40356760     0.03600
C98         C  0.38374946  0.09008388  0.40328421    -0.10500
H99         H  0.32538328  0.05365617  0.31791122     0.09200
H100        H  0.43548176  0.00595255  0.37209168     0.06700
H101        H  0.38494431  0.11395806  0.42810561     0.06600
C102        C  0.64950219  0.08735552  0.37340846     0.03600
C103        C  0.65071694  0.05523647  0.34247956    -0.12500
C104        C  0.61997239  0.02622357  0.34164816     0.01100
C105        C  0.58820923  0.02888559  0.37258031    -0.11000
C106        C  0.58688271  0.06025545  0.40412966     0.03600
C107        C  0.61727349  0.08960641  0.40413605    -0.10500
H108        H  0.67479231  0.05337142  0.31794741     0.09200
H109        H  0.56456083  0.00633217  0.37229697     0.06700
H110        H  0.61636751  0.11322232  0.42926176     0.06600
C111        C  0.64594534  0.09028329  0.12538116     0.03600
C112        C  0.64798449  0.05784004  0.15564900    -0.12500
C113        C  0.61885000  0.02720693  0.15457466     0.01100
C114        C  0.58794992  0.02868476  0.12250261    -0.11000
C115        C  0.58576066  0.06056043  0.09177101     0.03600
C116        C  0.61456585  0.09148967  0.09361549    -0.10500
H117        H  0.67198856  0.05650866  0.18033581     0.09200
H118        H  0.56552343  0.00493386  0.12148963     0.06700
H119        H  0.61258266  0.11632768  0.07014608     0.06600
C120        C  0.35094467  0.08847900  0.12362622     0.03600
C121        C  0.34968861  0.05597507  0.15392598    -0.12500
C122        C  0.37973569  0.02629999  0.15347780     0.01100
C123        C  0.41092756  0.02855525  0.12181627    -0.11000
C124        C  0.41252377  0.06026471  0.09080829     0.03600
C125        C  0.38274038  0.09041215  0.09213422    -0.10500
H126        H  0.32619428  0.05432352  0.17915163     0.09200
H127        H  0.43406260  0.00548819  0.12130179     0.06700
H128        H  0.38383208  0.11451816  0.06771173     0.06600
O129        O  0.03983340  0.52778656  0.29742335    -0.73900
O130        O  0.95799850  0.52671077  0.20736045    -0.74000
O131        O  0.03917682  0.52779405  0.20642405    -0.74000
O132        O  0.95861602  0.52679211  0.29838241    -0.74100
O133        O  0.95761492  0.59396869  0.29854870    -0.74000
O134        O  0.03882470  0.59498070  0.20661028    -0.74000
O135        O  0.95665878  0.59389966  0.20788100    -0.73900
O136        O  0.03979579  0.59498814  0.29732639    -0.74000
Ni137      Ni  0.99894335  0.52491733  0.25239296     1.25400
Ni138      Ni  0.99818949  0.59690874  0.25259142     1.25400
C139        C  0.05350171  0.56142114  0.31197268     0.88300
C140        C  0.94360157  0.56006034  0.19308283     0.88200
C141        C  0.05250994  0.56144792  0.19162396     0.88200
C142        C  0.94459710  0.56015943  0.31335960     0.88400
O143        O  0.95710413  0.28373259  0.20681485    -0.73900
O144        O  0.04098882  0.28361183  0.29620118    -0.74000
O145        O  0.95868620  0.28340358  0.29760702    -0.74000
O146        O  0.03975605  0.28394241  0.20547105    -0.74100
O147        O  0.03904155  0.35111864  0.20577569    -0.74000
O148        O  0.95904412  0.35058559  0.29831220    -0.74000
O149        O  0.04027475  0.35077921  0.29674844    -0.73900
O150        O  0.95756608  0.35090018  0.20728712    -0.74000
Ni151      Ni  0.99912471  0.28121972  0.25146114     1.25400
Ni152      Ni  0.99896150  0.35317919  0.25200571     1.25400
C153        C  0.94336004  0.31749392  0.19263658     0.88300
C154        C  0.05444496  0.31730621  0.31106261     0.88200
C155        C  0.94547504  0.31698920  0.31297074     0.88200
C156        C  0.05315001  0.31772571  0.19099182     0.88400
O157        O  0.15460012  0.39895293  0.04782509    -0.73900
O158        O  0.15347910  0.48124030  0.45591310    -0.74000
O159        O  0.15365820  0.48122260  0.04754408    -0.74000
O160        O  0.15407278  0.39901242  0.45548916    -0.74100
O161        O  0.08677860  0.39889758  0.45570377    -0.74000
O162        O  0.08637388  0.48000323  0.04697766    -0.74000
O163        O  0.08617939  0.48033088  0.45598651    -0.73900
O164        O  0.08731233  0.39863117  0.04705476    -0.74000
Ni165      Ni  0.15706836  0.43990694  0.00240008     1.25400
Ni166      Ni  0.08497569  0.43917138  0.00149431     1.25400
C167        C  0.12086692  0.38512834  0.06214260     0.88300
C168        C  0.11962422  0.49467093  0.44157582     0.88200
C169        C  0.11964979  0.49450845  0.06174048     0.88200
C170        C  0.12042189  0.38516864  0.44096688     0.88400
C171        C  0.14821366  0.58869324  0.37658256     0.03600
C172        C  0.11595211  0.59057582  0.34583465    -0.12500
C173        C  0.08572145  0.56104166  0.34591922     0.01100
C174        C  0.08722406  0.52979144  0.37736927    -0.11000
C175        C  0.11892256  0.52742029  0.40827429     0.03600
C176        C  0.14937599  0.55676289  0.40770391    -0.10500
H177        H  0.11484104  0.61395478  0.32058139     0.09200
H178        H  0.06378547  0.50701610  0.37752784     0.06700
H179        H  0.17335276  0.55499754  0.43231244     0.06600
C180        C  0.14928841  0.29066901  0.37632933     0.03600
C181        C  0.15075872  0.32321949  0.40677317    -0.12500
C182        C  0.12019371  0.35250304  0.40722338     0.01100
C183        C  0.08854438  0.34980805  0.37616820    -0.11000
C184        C  0.08687907  0.31808137  0.34504947     0.03600
C185        C  0.11695661  0.28830662  0.34565551    -0.10500
H186        H  0.17485712  0.32514641  0.43127383     0.09200
H187        H  0.06512973  0.37259583  0.37614215     0.06700
H188        H  0.11580004  0.26423891  0.32106962     0.06600
C189        C  0.14998946  0.29220866  0.12907688     0.03600
C190        C  0.11682036  0.28957319  0.15857181    -0.12500
C191        C  0.08602005  0.31858674  0.15759056     0.01100
C192        C  0.08787732  0.34992978  0.12619908    -0.11000
C193        C  0.12034054  0.35286906  0.09620789     0.03600
C194        C  0.15148793  0.32428458  0.09811827    -0.10500
H195        H  0.11549653  0.26597274  0.18358218     0.09200
H196        H  0.06402530  0.37224365  0.12526944     0.06700
H197        H  0.17612866  0.32648137  0.07436003     0.06600
C198        C  0.14659366  0.58953623  0.12626166     0.03600
C199        C  0.14863534  0.55716037  0.09570761    -0.12500
C200        C  0.11853166  0.52739670  0.09515442     0.01100
C201        C  0.08666931  0.52963457  0.12604792    -0.11000
C202        C  0.08462498  0.56118697  0.15735055     0.03600
C203        C  0.11430930  0.59130463  0.15696367    -0.10500
H204        H  0.17341740  0.55513212  0.07206659     0.09200
H205        H  0.06355072  0.50653931  0.12599538     0.06700
H206        H  0.11236262  0.61584147  0.18092731     0.06600
O207        O  0.84574641  0.39661131  0.45870675    -0.73900
O208        O  0.84415302  0.48039171  0.04694082    -0.74000
O209        O  0.84519452  0.47888362  0.45803217    -0.74000
O210        O  0.84463736  0.39832864  0.04697788    -0.74100
O211        O  0.91192566  0.39897767  0.04830041    -0.74000
O212        O  0.91250052  0.47891958  0.45805646    -0.74000
O213        O  0.91144272  0.48021549  0.04808688    -0.73900
O214        O  0.91304442  0.39759016  0.45842036    -0.74000
Ni215      Ni  0.84260186  0.43918277  0.00157664     1.25400
Ni216      Ni  0.91469946  0.43942970  0.00267906     1.25400
C217        C  0.87958048  0.38327393  0.44403692     0.88300
C218        C  0.87763010  0.49392852  0.06230768     0.88200
C219        C  0.87885156  0.49263503  0.44345250     0.88200
C220        C  0.87818589  0.38502113  0.06233141     0.88400
C221        C  0.85167037  0.28907312  0.37866022     0.03600
C222        C  0.88380673  0.28735949  0.34780483    -0.12500
C223        C  0.91364247  0.31728368  0.34752645     0.01100
C224        C  0.91190863  0.34865274  0.37905432    -0.11000
C225        C  0.88033008  0.35069556  0.41031552     0.03600
C226        C  0.85014705  0.32108176  0.40976903    -0.10500
H227        H  0.88492828  0.26379071  0.32263369     0.09200
H228        H  0.93506400  0.37170944  0.37904300     0.06700
H229        H  0.82617105  0.32254357  0.43445937     0.06600
C230        C  0.85081482  0.58754044  0.37976146     0.03600
C231        C  0.84896528  0.55489774  0.40987635    -0.12500
C232        C  0.87915595  0.52521310  0.40983057     0.01100
C233        C  0.91068117  0.52755673  0.37853929    -0.11000
C234        C  0.91254644  0.55937241  0.34772240     0.03600
C235        C  0.88292994  0.58954289  0.34889139    -0.10500
H236        H  0.82493216  0.55326672  0.43450517     0.10800
H237        H  0.93381619  0.50448757  0.37811750     0.06700
H238        H  0.88421430  0.61370382  0.32452621     0.06600
C239        C  0.84881706  0.58711505  0.12925745     0.03600
C240        C  0.88112945  0.58887228  0.15977631    -0.12500
C241        C  0.91111472  0.55921388  0.15949870     0.01100
C242        C  0.90936965  0.52800051  0.12784364    -0.11000
C243        C  0.87764777  0.52591278  0.09679632     0.03600
C244        C  0.84706354  0.55517441  0.09805651    -0.10500
H245        H  0.88244481  0.61258444  0.18480625     0.09200
H246        H  0.93284988  0.50528441  0.12733347     0.06700
H247        H  0.82295118  0.55383806  0.07353415     0.06600
C248        C  0.84776102  0.29209573  0.12779750     0.03600
C249        C  0.87976112  0.28949306  0.15885422    -0.12500
C250        C  0.91064807  0.31852326  0.15895521     0.01100
C251        C  0.90967075  0.34983811  0.12739118    -0.11000
C252        C  0.87813235  0.35269939  0.09621102     0.03600
C253        C  0.84713034  0.32400656  0.09681280    -0.10500
H254        H  0.88065117  0.26511743  0.18299878     0.09200
H255        H  0.93355221  0.37214324  0.12715539     0.06700
H256        H  0.82266236  0.32641447  0.07280371     0.06600
C257        C  0.28904923  0.17733878  0.11701069     0.20800
C258        C  0.27904889  0.21702419  0.10531845    -0.39000
C259        C  0.24057506  0.23003052  0.11862003     0.19800
C260        C  0.21416759  0.20551043  0.14192558     0.22500
C261        C  0.22423988  0.16588165  0.15383712    -0.39500
C262        C  0.26267357  0.15283672  0.14039641     0.21300
N263        N  0.32351525  0.15769694  0.10772084    -0.32800
C264        C  0.31927020  0.12023807  0.12538926    -0.10400
C265        C  0.28148413  0.11625087  0.14602220    -0.29200
N266        N  0.17900941  0.22454126  0.14932203    -0.45800
C267        C  0.18280675  0.26158596  0.13040196    -0.05100
C268        C  0.22111130  0.26601435  0.11117622    -0.22400
H269        H  0.29950004  0.23618152  0.08669676     0.19400
H270        H  0.20353304  0.14650387  0.17182070     0.18200
H271        H  0.26899998  0.09008353  0.16258242     0.14400
H272        H  0.23325367  0.29182528  0.09364441     0.14300
H273        H  0.34850811  0.16956728  0.09097683     0.32500
H274        H  0.15369080  0.21225544  0.16505525     0.35200
C275        C  0.77333147  0.21600038  0.14929294     0.20800
C276        C  0.75140195  0.18803520  0.17483754    -0.39000
C277        C  0.72292241  0.16520787  0.15095457     0.19800
C278        C  0.71656909  0.17005268  0.10523501     0.22500
C279        C  0.73841338  0.19808270  0.07970020    -0.39500
C280        C  0.76695767  0.22084055  0.10357390     0.21300
N281        N  0.80274524  0.24065348  0.16383732    -0.32800
C282        C  0.81520141  0.26149696  0.12712016    -0.10400
C283        C  0.79339132  0.24995777  0.08891910    -0.29200
N284        N  0.68820099  0.14438553  0.09039063    -0.45800
C285        C  0.67650131  0.12278783  0.12688353    -0.05100
C286        C  0.69753650  0.13503768  0.16530719    -0.22400
H287        H  0.75645786  0.18402415  0.21055760     0.19400
H288        H  0.73373618  0.20170253  0.04385760     0.18200
H289        H  0.79691047  0.26076182  0.05478343     0.14400
H290        H  0.69463026  0.12355074  0.19923022     0.14300
H291        H  0.81337023  0.24327075  0.19680441     0.32500
H292        H  0.67821276  0.14121030  0.05722938     0.35200
C293        C  0.71252000  0.17461460  0.38547187     0.20800
C294        C  0.72263532  0.21379656  0.39897756    -0.39000
C295        C  0.76169097  0.22642453  0.38784814     0.19800
C296        C  0.78851958  0.20200306  0.36489408     0.22500
C297        C  0.77836920  0.16281622  0.35127819    -0.39500
C298        C  0.73931609  0.15013857  0.36253687     0.21300
N299        N  0.67738442  0.15554669  0.39228143    -0.32800
C300        C  0.68166248  0.11844927  0.37358879    -0.10400
C301        C  0.72007493  0.11409337  0.35466009    -0.29200
N302        N  0.82382770  0.22098230  0.35870810    -0.45800
C303        C  0.81956739  0.25790584  0.37790938    -0.05100
C304        C  0.78102230  0.26225947  0.39640926    -0.22400
H305        H  0.70172352  0.23293789  0.41705255     0.19400
H306        H  0.79934173  0.14360773  0.33337832     0.18200
H307        H  0.73263050  0.08803521  0.33783663     0.14400
H308        H  0.76845498  0.28817710  0.41348708     0.14300
H309        H  0.65200227  0.16761727  0.40810398     0.32500
H310        H  0.84931577  0.20895913  0.34304419     0.35200
C311        C  0.21178008  0.20252433  0.36621514     0.20800
C312        C  0.22144147  0.16275632  0.35427786    -0.39000
C313        C  0.26085099  0.15037052  0.36444084     0.19800
C314        C  0.28844432  0.17558741  0.38505944     0.22500
C315        C  0.27876018  0.21535226  0.39710148    -0.39500
C316        C  0.23934219  0.22776045  0.38686482     0.21300
N317        N  0.17646865  0.22151900  0.35982888    -0.32800
C318        C  0.18135491  0.25930597  0.37656203    -0.10400
C319        C  0.22036073  0.26417782  0.39378718    -0.29200
N320        N  0.32392770  0.15671844  0.39076064    -0.45800
C321        C  0.31907393  0.11906770  0.37356540    -0.05100
C322        C  0.27992998  0.11412927  0.35686107    -0.22400
H323        H  0.19992740  0.14299116  0.33802405     0.19400
H324        H  0.30034206  0.23518201  0.41314986     0.18200
H325        H  0.23342776  0.29084949  0.40883572     0.14400
H326        H  0.26689280  0.08757351  0.34153177     0.14300
H327        H  0.15056110  0.20906543  0.34550795     0.32500
H328        H  0.34995395  0.16922173  0.40476484     0.35200
C329        C  0.26866473  0.72158454  0.14320451     0.20800
C330        C  0.23976515  0.70144389  0.16935723    -0.39000
C331        C  0.21803319  0.67109234  0.14715881     0.19800
C332        C  0.22454293  0.66158295  0.10237738     0.22500
C333        C  0.25334187  0.68183664  0.07616289    -0.39500
C334        C  0.27523160  0.71206536  0.09843285     0.21300
N335        N  0.29383868  0.75089858  0.15672511    -0.32800
C336        C  0.31692125  0.76011447  0.12039218    -0.10400
C337        C  0.30601837  0.73644612  0.08332349    -0.29200
N338        N  0.20028774  0.63132389  0.08932301    -0.45800
C339        C  0.17796068  0.62145099  0.12603034    -0.05100
C340        C  0.18831065  0.64573147  0.16278563    -0.22400
H341        H  0.23479247  0.70866186  0.20448705     0.19400
H342        H  0.25863659  0.67429607  0.04117724     0.18200
H343        H  0.31879437  0.73691049  0.04979325     0.14400
H344        H  0.17615104  0.64476837  0.19658654     0.14300
H345        H  0.29576231  0.76298883  0.18912569     0.32500
H346        H  0.19870430  0.61876655  0.05712536     0.35200
C347        C  0.73425832  0.72587110  0.13864546     0.20800
C348        C  0.77407503  0.71621288  0.15035365    -0.39000
C349        C  0.78622768  0.67680592  0.14014366     0.19800
C350        C  0.76079025  0.64927384  0.11970749     0.22500
C351        C  0.72101888  0.65894448  0.10803152    -0.39500
C352        C  0.70883904  0.69827124  0.11832323     0.21300
N353        N  0.71548615  0.76131832  0.14440365    -0.32800
C354        C  0.67774208  0.75631835  0.12751737    -0.10400
C355        C  0.67259029  0.71720738  0.11106651    -0.29200
N356        N  0.77961385  0.61396214  0.11326969    -0.45800
C357        C  0.81744641  0.61889601  0.12978118    -0.05100
C358        C  0.82257457  0.65783747  0.14689521    -0.22400
H359        H  0.79408740  0.73775588  0.16618496     0.19400
H360        H  0.70108343  0.63748657  0.09194958     0.18200
H361        H  0.64595303  0.70412029  0.09592859     0.14400
H362        H  0.84939387  0.67090255  0.16166790     0.14300
H363        H  0.72812762  0.78741125  0.15806445     0.32500
H364        H  0.76708625  0.58806313  0.09901737     0.35200
C365        C  0.28807221  0.70271624  0.38448728     0.20800
C366        C  0.27695432  0.66443174  0.40008085    -0.39000
C367        C  0.23840268  0.65128549  0.38734075     0.19800
C368        C  0.21299336  0.67443459  0.36112026     0.22500
C369        C  0.22415009  0.71264034  0.34544569    -0.39500
C370        C  0.26265379  0.72579256  0.35820357     0.21300
N371        N  0.32289539  0.72218247  0.39220285    -0.32800
C372        C  0.31975006  0.75815048  0.37070908    -0.10400
C373        C  0.28238406  0.76126516  0.34908030    -0.29200
N374        N  0.17787214  0.65537452  0.35401778    -0.45800
C375        C  0.18074334  0.61955402  0.37581057    -0.05100
C376        C  0.21831477  0.61608617  0.39698182    -0.22400
H377        H  0.29674269  0.64633872  0.42079221     0.19400
H378        H  0.20427198  0.73082849  0.32494870     0.18200
H379        H  0.27063521  0.78621796  0.32977569     0.14400
H380        H  0.22984410  0.59119430  0.41655018     0.14300
H381        H  0.34724185  0.71108114  0.41063837     0.32500
H382        H  0.15343159  0.66676059  0.33595802     0.35200
C383        C  0.71277055  0.70371824  0.38650305     0.20800
C384        C  0.72185884  0.66380872  0.39819629    -0.39000
C385        C  0.76149550  0.65133271  0.38937838     0.19800
C386        C  0.78985696  0.67665491  0.37035224     0.22500
C387        C  0.78079152  0.71662028  0.35873959    -0.39500
C388        C  0.74109577  0.72907793  0.36746822     0.21300
N389        N  0.67717774  0.72256771  0.39105575    -0.32800
C390        C  0.68262572  0.76035275  0.37473246    -0.10400
C391        C  0.72228783  0.76543966  0.35966735    -0.29200
N392        N  0.82513692  0.65739657  0.36475970    -0.45800
C393        C  0.81934415  0.61939337  0.38032484    -0.05100
C394        C  0.77988585  0.61462940  0.39609525    -0.22400
H395        H  0.69963769  0.64388378  0.41287688     0.19400
H396        H  0.80290859  0.73642574  0.34366721     0.18200
H397        H  0.73576090  0.79215442  0.34527803     0.14400
H398        H  0.76613230  0.58777248  0.40981085     0.14300
H399        H  0.65066528  0.70996285  0.40374302     0.32500
H400        H  0.85155864  0.66971923  0.35150354     0.35200
O401        O  0.45893796  0.78354985  0.95187668    -0.73900
O402        O  0.54136942  0.78371540  0.54171592    -0.74000
O403        O  0.45933237  0.78359763  0.54220153    -0.74000
O404        O  0.54134891  0.78340324  0.95195845    -0.74100
O405        O  0.54088310  0.85057681  0.95209889    -0.74000
O406        O  0.45949316  0.85077649  0.54274017    -0.74000
O407        O  0.54068854  0.85090050  0.54256164    -0.73900
O408        O  0.45950419  0.85073583  0.95233508    -0.74000
Ni409      Ni  0.50018099  0.78142371  0.49655643     1.25400
Ni410      Ni  0.50021364  0.85275807  0.99768617     1.25400
C411        C  0.44540116  0.81734070  0.93761185     0.88300
C412        C  0.55463987  0.81733550  0.55686735     0.88200
C413        C  0.44599817  0.81716364  0.55746892     0.88200
C414        C  0.55483389  0.81710909  0.93733963     0.88400
C415        C  0.64951233  0.78954949  0.87252974     0.03600
C416        C  0.65151204  0.82185969  0.84200295    -0.12500
C417        C  0.62135785  0.85149273  0.84144243     0.01100
C418        C  0.58959381  0.84939229  0.87248859    -0.11000
C419        C  0.58736349  0.81772776  0.90349010     0.03600
C420        C  0.61702505  0.78758663  0.90293307    -0.10500
H421        H  0.67623818  0.82388152  0.81829695     0.09200
H422        H  0.56647869  0.87248000  0.87249501     0.06700
H423        H  0.61485763  0.76291034  0.92655863     0.06600
C424        C  0.35064257  0.79009655  0.87288055     0.03600
C425        C  0.38286969  0.78826834  0.90366463    -0.12500
C426        C  0.41276308  0.81817695  0.90405825     0.01100
C427        C  0.41075439  0.84984531  0.87312561    -0.11000
C428        C  0.37922130  0.85192392  0.84191021     0.03600
C429        C  0.34907294  0.82230118  0.84218352    -0.10500
H430        H  0.38426652  0.76446005  0.92841107     0.09200
H431        H  0.43393395  0.87287996  0.87321708     0.06700
H432        H  0.32523421  0.82380852  0.81736896     0.06600
C433        C  0.64838568  0.78896509  0.62235282     0.03600
C434        C  0.65036870  0.82117899  0.65309121    -0.12500
C435        C  0.62050405  0.85108371  0.65344045     0.01100
C436        C  0.58894847  0.84924466  0.62218819    -0.11000
C437        C  0.58681102  0.81768216  0.59095713     0.03600
C438        C  0.61622462  0.78734801  0.59153716    -0.10500
H439        H  0.67423142  0.82240284  0.67791823     0.09200
H440        H  0.56600354  0.87250218  0.62213167     0.06700
H441        H  0.61471670  0.76333924  0.56687953     0.06600
C442        C  0.35429385  0.78731281  0.62614196     0.03600
C443        C  0.38595540  0.78617782  0.59452908    -0.12500
C444        C  0.41437325  0.81738176  0.59229759     0.01100
C445        C  0.41202903  0.84937927  0.62291673    -0.11000
C446        C  0.38106023  0.85088663  0.65489488     0.03600
C447        C  0.35193793  0.82020432  0.65598659    -0.10500
H448        H  0.38852809  0.76130132  0.57115881     0.09200
H449        H  0.43433631  0.87323735  0.62183468     0.06700
H450        H  0.32789346  0.82199113  0.68052645     0.06600
O451        O  0.58782003  0.89746840  0.70212427    -0.73900
O452        O  0.58851791  0.97901069  0.79288735    -0.74000
O453        O  0.58790666  0.97868109  0.70199596    -0.74000
O454        O  0.58836065  0.89779677  0.79312227    -0.74100
O455        O  0.65565417  0.89712098  0.79249229    -0.74000
O456        O  0.65521509  0.97917871  0.70179158    -0.74000
O457        O  0.65581576  0.97942127  0.79242127    -0.73900
O458        O  0.65512699  0.89695612  0.70176970    -0.74000
Ni459      Ni  0.58581002  0.93822659  0.74754599     1.25400
Ni460      Ni  0.65791291  0.93814863  0.74708584     1.25400
C461        C  0.62128334  0.88349430  0.68730839     0.88300
C462        C  0.62213859  0.99299497  0.80726376     0.88200
C463        C  0.62139804  0.99272769  0.68741708     0.88200
C464        C  0.62194531  0.88381615  0.80751165     0.88400
O465        O  0.34518261  0.89725189  0.79272905    -0.73900
O466        O  0.34561069  0.97947497  0.70238398    -0.74000
O467        O  0.34616715  0.89723139  0.70219678    -0.74000
O468        O  0.34452669  0.97923161  0.79297031    -0.74100
O469        O  0.41184254  0.97930724  0.79371118    -0.74000
O470        O  0.41348186  0.89804189  0.70285553    -0.74000
O471        O  0.41290911  0.97941164  0.70282082    -0.73900
O472        O  0.41247990  0.89826836  0.79381564    -0.74000
Ni473      Ni  0.34293822  0.93828587  0.74749150     1.25400
Ni474      Ni  0.41505417  0.93877961  0.74830466     1.25400
C475        C  0.37885335  0.88414915  0.80796880     0.88300
C476        C  0.37936769  0.99325466  0.68808789     0.88200
C477        C  0.38011530  0.88379220  0.68808204     0.88200
C478        C  0.37804610  0.99283837  0.80808212     0.88400
O479        O  0.45957063  0.02743524  0.54370531    -0.73900
O480        O  0.54081378  0.02655724  0.95157236    -0.74000
O481        O  0.54082284  0.02763521  0.54382682    -0.74000
O482        O  0.45947236  0.02661846  0.95121079    -0.74100
O483        O  0.45894697  0.09381569  0.95100763    -0.74000
O484        O  0.54126478  0.09481021  0.54402060    -0.74000
O485        O  0.54125207  0.09373331  0.95141619    -0.73900
O486        O  0.45886890  0.09461889  0.54375663    -0.74000
Ni487      Ni  0.50023453  0.02520667  0.49826413     1.25400
Ni488      Ni  0.50018387  0.09718242  0.49848875     1.25400
C489        C  0.44554639  0.06085966  0.55842274     0.88300
C490        C  0.55482311  0.05998115  0.93689127     0.88200
C491        C  0.55471373  0.06110407  0.55865162     0.88200
C492        C  0.44545994  0.06003604  0.93659588     0.88400
C493        C  0.34968341  0.08639966  0.87395371     0.03600
C494        C  0.34755732  0.05398052  0.84348430    -0.12500
C495        C  0.37822508  0.02491389  0.84219582     0.01100
C496        C  0.41041480  0.02750027  0.87248545    -0.11000
C497        C  0.41271136  0.05923600  0.90333109     0.03600
C498        C  0.38265421  0.08891254  0.90359841    -0.10500
H499        H  0.32296947  0.05208011  0.81958753     0.09200
H500        H  0.43386301  0.00474344  0.87199871     0.06700
H501        H  0.38427615  0.11294275  0.92820338     0.06600
C502        C  0.64973471  0.08749010  0.87258749     0.03600
C503        C  0.65169057  0.05521155  0.84178680    -0.12500
C504        C  0.62157821  0.02548982  0.84114789     0.01100
C505        C  0.58976883  0.02761533  0.87211603    -0.11000
C506        C  0.58745271  0.05930569  0.90317185     0.03600
C507        C  0.61718506  0.08936632  0.90294029    -0.10500
H508        H  0.67587457  0.05368418  0.81735058     0.09200
H509        H  0.56667079  0.00450232  0.87203211     0.06700
H510        H  0.61561220  0.11322358  0.92773456     0.06600
C511        C  0.64872038  0.08819264  0.62495524     0.03600
C512        C  0.65059009  0.05546961  0.65481670    -0.12500
C513        C  0.62068347  0.02563254  0.65430573     0.01100
C514        C  0.58907960  0.02819280  0.62317440    -0.11000
C515        C  0.58701182  0.06031507  0.59272785     0.03600
C516        C  0.61667166  0.09048701  0.59403503    -0.10500
H517        H  0.67509330  0.05331226  0.67880764     0.09200
H518        H  0.56603974  0.00502560  0.62258386     0.06700
H519        H  0.61487682  0.11548432  0.57076434     0.06600
C520        C  0.34992292  0.08665897  0.62230848     0.03600
C521        C  0.34882723  0.05463128  0.65332101    -0.12500
C522        C  0.37982309  0.02584840  0.65445449     0.01100
C523        C  0.41184354  0.02874870  0.62388998    -0.11000
C524        C  0.41315408  0.05999373  0.59232854     0.03600
C525        C  0.38243125  0.08901486  0.59191106    -0.10500
H526        H  0.32458976  0.05254674  0.67760388     0.09200
H527        H  0.43567383  0.00640012  0.62438726     0.06700
H528        H  0.38337645  0.11245553  0.56670675     0.06600
O529        O  0.04088807  0.52656354  0.79666234    -0.73900
O530        O  0.95936815  0.52741470  0.70623653    -0.74000
O531        O  0.04052087  0.52742438  0.70575389    -0.74000
O532        O  0.95962353  0.52666443  0.79711390    -0.74100
O533        O  0.95922311  0.59385709  0.79760928    -0.74000
O534        O  0.04114344  0.59462536  0.70671275    -0.74000
O535        O  0.95897444  0.59460629  0.70699713    -0.73900
O536        O  0.04139470  0.59376481  0.79727129    -0.74000
Ni537      Ni  0.00009835  0.52465127  0.75141148     1.25400
Ni538      Ni  0.00017789  0.59665766  0.75219093     1.25400
C539        C  0.05485180  0.55996078  0.81153718     0.88300
C540        C  0.94552947  0.56101368  0.69195113     0.88200
C541        C  0.05442995  0.56103646  0.69152330     0.88200
C542        C  0.94578986  0.56010390  0.81206644     0.88400
O543        O  0.95990293  0.28241791  0.70696306    -0.73900
O544        O  0.04264890  0.28325372  0.79732738    -0.74000
O545        O  0.96019663  0.28248477  0.79781666    -0.74000
O546        O  0.04243618  0.28352898  0.70645278    -0.74100
O547        O  0.04116547  0.35068434  0.70661355    -0.74000
O548        O  0.96030828  0.34965220  0.79811965    -0.74000
O549        O  0.04157241  0.35041713  0.79761772    -0.73900
O550        O  0.95984010  0.34959403  0.70720200    -0.74000
Ni551      Ni  0.00133594  0.28044527  0.75211731     1.25400
Ni552      Ni  0.00069621  0.35239551  0.75238639     1.25400
C553        C  0.94605931  0.31602378  0.69253460     0.88300
C554        C  0.05582721  0.31706049  0.81214042     0.88200
C555        C  0.94662682  0.31611469  0.81279353     0.88200
C556        C  0.05546488  0.31742620  0.69175083     0.88400
O557        O  0.15435164  0.39894613  0.54619817    -0.73900
O558        O  0.15467798  0.48070720  0.95696053    -0.74000
O559        O  0.15397794  0.48107625  0.54633349    -0.74000
O560        O  0.15558124  0.39869265  0.95701602    -0.74100
O561        O  0.08828205  0.39859556  0.95596592    -0.74000
O562        O  0.08669000  0.48042734  0.54686897    -0.74000
O563        O  0.08737809  0.47963978  0.95599127    -0.73900
O564        O  0.08705994  0.39907775  0.54690237    -0.74000
Ni565      Ni  0.15638115  0.44006745  0.50094604     1.25400
Ni566      Ni  0.08429099  0.43964627  0.50135867     1.25400
C567        C  0.12077742  0.38534772  0.56125328     0.88300
C568        C  0.12097410  0.49373933  0.94175586     0.88200
C569        C  0.12030431  0.49451592  0.56122723     0.88200
C570        C  0.12211367  0.38504801  0.94169872     0.88400
C571        C  0.14937032  0.58730493  0.87623158     0.03600
C572        C  0.11716600  0.58905489  0.84547993    -0.12500
C573        C  0.08725306  0.55921171  0.84526202     0.01100
C574        C  0.08905590  0.52777994  0.87648368    -0.11000
C575        C  0.12056837  0.52583154  0.90772671     0.03600
C576        C  0.15082070  0.55534194  0.90722165    -0.10500
H577        H  0.11587557  0.61267578  0.82050207     0.09200
H578        H  0.06581113  0.50480802  0.87651786     0.06700
H579        H  0.17470018  0.55389853  0.93199398     0.06600
C580        C  0.14984512  0.28996155  0.87818109     0.03600
C581        C  0.15205523  0.32294965  0.90787835    -0.12500
C582        C  0.12206412  0.35270814  0.90770713     0.01100
C583        C  0.09052955  0.35027908  0.87644895    -0.11000
C584        C  0.08820338  0.31801264  0.84611259     0.03600
C585        C  0.11755757  0.28762401  0.84755414    -0.10500
H586        H  0.17608162  0.32470289  0.93249234     0.09200
H587        H  0.06755404  0.37349942  0.87592273     0.06700
H588        H  0.11592549  0.26305875  0.82362057     0.06600
C589        C  0.14999914  0.29121381  0.62570479     0.03600
C590        C  0.11799832  0.28905408  0.65680753    -0.12500
C591        C  0.08776629  0.31861728  0.65757069     0.01100
C592        C  0.08921085  0.35031974  0.62650489    -0.11000
C593        C  0.12069620  0.35293711  0.59515066     0.03600
C594        C  0.15119444  0.32364323  0.59524204    -0.10500
H595        H  0.11699650  0.26517437  0.68148534     0.09200
H596        H  0.06573805  0.37304210  0.62673068     0.06700
H597        H  0.17495209  0.32550484  0.57034721     0.06600
C598        C  0.15084861  0.58651416  0.62940369     0.03600
C599        C  0.15171546  0.55486330  0.59773790    -0.12500
C600        C  0.12003570  0.52686828  0.59526819     0.01100
C601        C  0.08779703  0.52987375  0.62545048    -0.11000
C602        C  0.08676692  0.56059483  0.65770178     0.03600
C603        C  0.11782548  0.58925292  0.65906440    -0.10500
H604        H  0.17684900  0.55174501  0.57479780     0.09200
H605        H  0.06362591  0.50789916  0.62425835     0.06700
H606        H  0.11644021  0.61304881  0.68394307     0.06600
O607        O  0.84589695  0.39797747  0.95635088    -0.73900
O608        O  0.84513115  0.47968802  0.54853826    -0.74000
O609        O  0.84540961  0.48007567  0.95628941    -0.74000
O610        O  0.84550427  0.39747103  0.54928704    -0.74100
O611        O  0.91281104  0.39801066  0.54934983    -0.74000
O612        O  0.91272261  0.47982901  0.95700466    -0.74000
O613        O  0.91244739  0.47923727  0.54892496    -0.73900
O614        O  0.91319226  0.39857246  0.95720221    -0.74000
Ni615      Ni  0.84295134  0.43813777  0.50364310     1.25400
Ni616      Ni  0.91506331  0.43844976  0.50370131     1.25400
C617        C  0.87983542  0.38446359  0.94220934     0.88300
C618        C  0.87883818  0.49335219  0.56312102     0.88200
C619        C  0.87925103  0.49358307  0.94200543     0.88200
C620        C  0.87926136  0.38401297  0.56388606     0.88400
C621        C  0.85201714  0.28945989  0.87845775     0.03600
C622        C  0.88440129  0.28700892  0.84783719    -0.12500
C623        C  0.91440899  0.31683340  0.84708358     0.01100
C624        C  0.91250565  0.34881311  0.87791674    -0.11000
C625        C  0.88066978  0.35160623  0.90878036     0.03600
C626        C  0.85033389  0.32217419  0.90856433    -0.10500
H627        H  0.88566906  0.26287897  0.82335166     0.09200
H628        H  0.93577502  0.37175188  0.87772717     0.06700
H629        H  0.82620804  0.32418823  0.93302431     0.06600
C630        C  0.85208725  0.58827594  0.87798446     0.03600
C631        C  0.85010138  0.55590253  0.90836445    -0.12500
C632        C  0.87994088  0.52595235  0.90831106     0.01100
C633        C  0.91134525  0.52774905  0.87688133    -0.11000
C634        C  0.91350714  0.55948393  0.84603360     0.03600
C635        C  0.88418969  0.58992950  0.84708816    -0.10500
H636        H  0.82565599  0.55407896  0.93245021     0.10800
H637        H  0.93422202  0.50442178  0.87650611     0.06700
H638        H  0.88640183  0.61466319  0.82354586     0.06600
C639        C  0.85221615  0.58930695  0.62559354     0.03600
C640        C  0.88437193  0.59123745  0.65642892    -0.12500
C641        C  0.91338337  0.56056696  0.65789387     0.01100
C642        C  0.91084469  0.52834307  0.62763027    -0.11000
C643        C  0.87943869  0.52624230  0.59630526     0.03600
C644        C  0.84997163  0.55651520  0.59563173    -0.10500
H645        H  0.88614380  0.61570497  0.68048317     0.09200
H646        H  0.93346677  0.50477916  0.62839986     0.06700
H647        H  0.82623199  0.55506392  0.57067374     0.06600
C648        C  0.85128198  0.28919841  0.62733646     0.03600
C649        C  0.88353063  0.28676983  0.65802539    -0.12500
C650        C  0.91350601  0.31667684  0.65879088     0.01100
C651        C  0.91154689  0.34860349  0.62811455    -0.11000
C652        C  0.87979560  0.35129540  0.59724413     0.03600
C653        C  0.84954563  0.32179489  0.59727131    -0.10500
H654        H  0.88524812  0.26190729  0.68148551     0.09200
H655        H  0.93482594  0.37153738  0.62832198     0.06700
H656        H  0.82489734  0.32407934  0.57348400     0.06600
C657        C  0.28634803  0.17366801  0.60975252     0.20800
C658        C  0.27629218  0.21297564  0.59668981    -0.39000
C659        C  0.23815155  0.22652458  0.61035249     0.19800
C660        C  0.21205655  0.20275353  0.63501980     0.22500
C661        C  0.22207864  0.16339864  0.64800745    -0.39500
C662        C  0.26027818  0.14988095  0.63443716     0.21300
N663        N  0.32112128  0.15421266  0.60185837    -0.32800
C664        C  0.31744390  0.11758615  0.62175018    -0.10400
C665        C  0.27960815  0.11388513  0.64229706    -0.29200
N666        N  0.17768520  0.22262441  0.64384737    -0.45800
C667        C  0.18172836  0.25952588  0.62467359    -0.05100
C668        C  0.21929787  0.26291245  0.60348184    -0.22400
H669        H  0.29674219  0.23169100  0.57750756     0.19400
H670        H  0.20177401  0.14481511  0.66753946     0.18200
H671        H  0.26762169  0.08849381  0.66071065     0.14400
H672        H  0.23157682  0.28849878  0.58565248     0.14300
H673        H  0.34607436  0.16597617  0.58496132     0.32500
H674        H  0.15286995  0.21111243  0.66121240     0.35200
C675        C  0.77869654  0.21128797  0.64818273     0.20800
C676        C  0.75717617  0.18291149  0.67357397    -0.39000
C677        C  0.72805094  0.16077313  0.64986695     0.19800
C678        C  0.72078625  0.16657124  0.60445736     0.22500
C679        C  0.74228083  0.19495842  0.57907507    -0.39500
C680        C  0.77140773  0.21708681  0.60277841     0.21300
N681        N  0.80808330  0.23594805  0.66273111    -0.32800
C682        C  0.81953775  0.25780625  0.62634333    -0.10400
C683        C  0.79722240  0.24681412  0.58832871    -0.29200
N684        N  0.69157459  0.14176523  0.58983251    -0.45800
C685        C  0.68019363  0.11981231  0.62616926    -0.05100
C686        C  0.70236996  0.13089220  0.66424818    -0.22400
H687        H  0.76278494  0.17831226  0.70910208     0.19400
H688        H  0.73672304  0.19949840  0.54352576     0.18200
H689        H  0.79979618  0.25859134  0.55449667     0.14400
H690        H  0.69985357  0.11900942  0.69803933     0.14300
H691        H  0.81910961  0.23811631  0.69557347     0.32500
H692        H  0.68067812  0.13951094  0.55693980     0.35200
C693        C  0.71288671  0.17463235  0.88701853     0.20800
C694        C  0.72298736  0.21388331  0.90057711    -0.39000
C695        C  0.76229529  0.22638127  0.89000874     0.19800
C696        C  0.78937732  0.20165411  0.86784422     0.22500
C697        C  0.77931975  0.16241642  0.85446784    -0.39500
C698        C  0.74001496  0.14999841  0.86481199     0.21300
N699        N  0.67737305  0.15579546  0.89248839    -0.32800
C700        C  0.68182317  0.11874641  0.87358957    -0.10400
C701        C  0.72067404  0.11420736  0.85596683    -0.29200
N702        N  0.82456429  0.22069685  0.86112678    -0.45800
C703        C  0.82005210  0.25807850  0.87900574    -0.05100
C704        C  0.78144065  0.26258151  0.89747776    -0.22400
H705        H  0.70175491  0.23331727  0.91777849     0.19400
H706        H  0.80042410  0.14311968  0.83689057     0.18200
H707        H  0.73344948  0.08816051  0.83933600     0.14400
H708        H  0.76861031  0.28891816  0.91348132     0.14300
H709        H  0.65166418  0.16795311  0.90755584     0.32500
H710        H  0.85006292  0.20853133  0.84562897     0.35200
C711        C  0.21063132  0.20089351  0.86955874     0.20800
C712        C  0.21978728  0.16095877  0.85800835    -0.39000
C713        C  0.25940501  0.14867762  0.86704564     0.19800
C714        C  0.28760219  0.17414979  0.88624756     0.22500
C715        C  0.27842935  0.21403959  0.89786895    -0.39500
C716        C  0.23885156  0.22633652  0.88876448     0.21300
N717        N  0.17539062  0.22004253  0.86364305    -0.32800
C718        C  0.18114710  0.25810749  0.87912796    -0.10400
C719        C  0.22046083  0.26300696  0.89522737    -0.29200
N720        N  0.32314473  0.15537255  0.89113995    -0.45800
C721        C  0.31768003  0.11752549  0.87490963    -0.05100
C722        C  0.27816406  0.11232748  0.85953510    -0.22400
H723        H  0.19780510  0.14104859  0.84278553     0.19400
H724        H  0.30052361  0.23406353  0.91269840     0.18200
H725        H  0.23417558  0.28993779  0.90891832     0.14400
H726        H  0.26470440  0.08553968  0.84519145     0.14300
H727        H  0.14909000  0.20763109  0.85018923     0.32500
H728        H  0.34956130  0.16803257  0.90401348     0.35200
C729        C  0.27568858  0.71575175  0.65061371     0.20800
C730        C  0.24411156  0.69802462  0.67513927    -0.39000
C731        C  0.22451479  0.66568595  0.65385261     0.19800
C732        C  0.23574579  0.65198844  0.61168614     0.22500
C733        C  0.26739019  0.66952804  0.58737169    -0.39500
C734        C  0.28674924  0.70193214  0.60845664     0.21300
N735        N  0.29823407  0.74766764  0.66255003    -0.32800
C736        C  0.32389141  0.75435973  0.62760947    -0.10400
C737        C  0.31741715  0.72617823  0.59329964    -0.29200
N738        N  0.21155494  0.62200240  0.59800631    -0.45800
C739        C  0.18432905  0.61633968  0.63157125    -0.05100
C740        C  0.19175861  0.64310838  0.66716823    -0.22400
H741        H  0.23496659  0.70908609  0.70790368     0.19400
H742        H  0.27584323  0.65915969  0.55410071     0.18200
H743        H  0.33229899  0.72396732  0.56098184     0.14400
H744        H  0.17537051  0.64617846  0.69848322     0.14300
H745        H  0.29611708  0.76353049  0.69284707     0.32500
H746        H  0.21302579  0.60746427  0.56684734     0.35200
C747        C  0.73661846  0.72724407  0.63327884     0.20800
C748        C  0.77643715  0.71794621  0.64525972    -0.39000
C749        C  0.78910688  0.67878089  0.63486539     0.19800
C750        C  0.76406351  0.65106359  0.61416468     0.22500
C751        C  0.72422234  0.66034680  0.60221876    -0.39500
C752        C  0.71157386  0.69955109  0.61253156     0.21300
N753        N  0.71746367  0.76239924  0.63942067    -0.32800
C754        C  0.67980559  0.75720902  0.62243683    -0.10400
C755        C  0.67511921  0.71823686  0.60530854    -0.29200
N756        N  0.78325661  0.61592678  0.60801426    -0.45800
C757        C  0.82093005  0.62117748  0.62494800    -0.05100
C758        C  0.82559704  0.66017302  0.64199662    -0.22400
H759        H  0.79607086  0.73958960  0.66149897     0.19400
H760        H  0.70458557  0.63869255  0.58600064     0.18200
H761        H  0.64858034  0.70503496  0.59006454     0.14400
H762        H  0.85210216  0.67342228  0.65725839     0.14300
H763        H  0.72976795  0.78841103  0.65364257     0.32500
H764        H  0.77093444  0.58986766  0.59391484     0.35200
C765        C  0.28794360  0.70247585  0.88498469     0.20800
C766        C  0.27763317  0.66353450  0.89907358    -0.39000
C767        C  0.23890048  0.65049561  0.88702827     0.19800
C768        C  0.21255307  0.67433490  0.86278755     0.22500
C769        C  0.22288470  0.71324502  0.84863176    -0.39500
C770        C  0.26159959  0.72630360  0.86072736     0.21300
N771        N  0.32282736  0.72190051  0.89236766    -0.32800
C772        C  0.31880513  0.75858402  0.87271051    -0.10400
C773        C  0.28082011  0.76225359  0.85259320    -0.29200
N774        N  0.17749638  0.65510579  0.85587198    -0.45800
C775        C  0.18141337  0.61854847  0.87583296    -0.05100
C776        C  0.21950921  0.61472543  0.89561781    -0.22400
H777        H  0.29816618  0.64485823  0.91817095     0.19400
H778        H  0.20228890  0.73197551  0.82968391     0.18200
H779        H  0.26843641  0.78783632  0.83486354     0.14400
H780        H  0.23179062  0.58920588  0.91355010     0.14300
H781        H  0.34783714  0.71032338  0.90928013     0.32500
H782        H  0.15240482  0.66678266  0.83919100     0.35200
C783        C  0.72058895  0.71069371  0.89593725     0.20800
C784        C  0.74039929  0.68146273  0.92186708    -0.39000
C785        C  0.77135219  0.66038351  0.89987859     0.19800
C786        C  0.78179814  0.66795372  0.85560465     0.22500
C787        C  0.76203300  0.69718926  0.82972233    -0.39500
C788        C  0.73109461  0.71823571  0.85167815     0.21300
N789        N  0.69019341  0.73478500  0.90894198    -0.32800
C790        C  0.68125782  0.75804029  0.87271301    -0.10400
C791        C  0.70625613  0.74841673  0.83632811    -0.29200
N792        N  0.81188370  0.64364094  0.84233325    -0.45800
C793        C  0.82074980  0.62016551  0.87837206    -0.05100
C794        C  0.79600617  0.62990190  0.91497140    -0.22400
H795        H  0.73220703  0.67546188  0.95649881     0.19400
H796        H  0.77012754  0.70308552  0.79504044     0.18200
H797        H  0.70619115  0.76139991  0.80294214     0.14400
H798        H  0.79601289  0.61668927  0.94824541     0.14300
H799        H  0.67706057  0.73570543  0.94087524     0.32500
H800        H  0.82474454  0.64264216  0.81026905     0.35200
loop_ 
_geom_bond_atom_site_label_1 
_geom_bond_atom_site_label_2 
_geom_bond_distance 
_geom_bond_site_symmetry_2 
_ccdc_geom_bond_type 
O1           C11   1.281       .  A
O1         Ni409   1.917       .  S
O2           C12   1.282       .  A
O2           Ni9   1.920   1_554  S
O3           C13   1.281       .  A
O3           Ni9   1.919   1_554  S
O4           C14   1.281       .  A
O4         Ni409   1.918       .  S
O5           C14   1.281       .  A
O5          Ni10   1.911       .  S
O6           C13   1.281       .  A
O6         Ni410   1.909   1_554  S
O7           C12   1.280       .  A
O7         Ni410   1.908   1_554  S
O8           C11   1.280       .  A
O8          Ni10   1.911       .  S
Ni9         O401   1.919       .  S
Ni9         O404   1.921       .  S
Ni9        Ni410   2.391       .  S
Ni10        O406   1.911       .  S
Ni10        O407   1.910       .  S
Ni10       Ni409   2.391       .  S
C11          C26   1.472       .  S
C12          C37   1.472       .  S
C13          C44   1.472       .  S
C14          C19   1.472       .  S
C15         C390   1.487       .  S
C15          C16   1.409       .  A
C15          C20   1.407       .  A
C16          C17   1.406       .  A
C16          H21   1.083       .  S
C17          C64   1.474       .  S
C17          C18   1.400       .  A
C18          C19   1.399       .  A
C18          H22   1.084       .  S
C19          C20   1.403       .  A
C20          H23   1.082       .  S
C24         C372   1.488       .  S
C24          C25   1.408       .  A
C24          C29   1.409       .  A
C25          C26   1.403       .  A
C25          H30   1.081       .  S
C26          C27   1.399       .  A
C27          C28   1.399       .  A
C27          H31   1.084       .  S
C28          C75   1.472       .  S
C28          C29   1.403       .  A
C29          H32   1.082       .  S
C33         C354   1.482       .  S
C33          C34   1.406       .  A
C33          C38   1.407       .  A
C34          C35   1.402       .  A
C34          H39   1.082       .  S
C35          C61   1.470       .  S
C35          C36   1.399       .  A
C36          C37   1.400       .  A
C36          H40   1.084       .  S
C37          C38   1.402       .  A
C38          H41   1.082       .  S
C42         C336   1.485       .  S
C42          C43   1.408       .  A
C42          C47   1.408       .  A
C43          C44   1.404       .  A
C43          H48   1.083       .  S
C44          C45   1.400       .  A
C45          C46   1.399       .  A
C45          H49   1.084       .  S
C46          C77   1.474       .  S
C46          C47   1.404       .  A
C47          H50   1.083       .  S
O51          C61   1.280       .  A
O51         Ni59   1.909       .  S
O52          C62   1.280       .  A
O52         Ni59   1.911       .  S
O53          C63   1.281       .  A
O53         Ni59   1.912       .  S
O54          C64   1.281       .  A
O54         Ni59   1.912       .  S
O55          C64   1.281       .  A
O55         Ni60   1.919       .  S
O56          C63   1.281       .  A
O56         Ni60   1.919       .  S
O57          C62   1.281       .  A
O57         Ni60   1.917       .  S
O58          C61   1.281       .  A
O58         Ni60   1.917       .  S
Ni59        Ni60   2.391       .  S
C62         C104   1.472   1_565  S
C63         C113   1.472   1_565  S
O65          C75   1.282       .  A
O65         Ni73   1.919       .  S
O66          C76   1.282       .  A
O66         Ni73   1.918       .  S
O67          C77   1.281       .  A
O67         Ni73   1.918       .  S
O68          C78   1.282       .  A
O68         Ni73   1.920       .  S
O69          C78   1.282       .  A
O69         Ni74   1.917       .  S
O70          C77   1.282       .  A
O70         Ni74   1.914       .  S
O71          C76   1.280       .  A
O71         Ni74   1.911       .  S
O72          C75   1.280       .  A
O72         Ni74   1.911       .  S
Ni73        Ni74   2.390       .  S
C76         C122   1.473   1_565  S
C78          C95   1.478   1_565  S
O79          C89   1.281       .  A
O79         Ni87   1.913   1_554  S
O80          C90   1.279       .  A
O80        Ni487   1.907       .  S
O81          C91   1.280       .  A
O81         Ni87   1.909   1_554  S
O82          C92   1.280       .  A
O82        Ni487   1.911       .  S
O83          C92   1.282       .  A
O83        Ni488   1.921       .  S
O84          C91   1.281       .  A
O84         Ni88   1.917   1_554  S
O85          C90   1.282       .  A
O85        Ni488   1.920       .  S
O86          C89   1.282       .  A
O86         Ni88   1.922   1_554  S
Ni87        O480   1.912       .  S
Ni87        O482   1.907       .  S
Ni87        Ni88   2.391       .  S
Ni88        O483   1.915       .  S
Ni88        O485   1.921       .  S
C89         C124   1.477       .  S
C90         C106   1.471       .  S
C91         C115   1.472       .  S
C92          C97   1.474       .  S
C93         C321   1.488       .  S
C93          C94   1.410       .  A
C93          C98   1.407       .  A
C94          C95   1.406       .  A
C94          H99   1.082       .  S
C95          C96   1.401       .  A
C96          C97   1.402       .  A
C96         H100   1.084       .  S
C97          C98   1.403       .  A
C98         H101   1.082       .  S
C102        C300   1.484       .  S
C102        C103   1.407       .  A
C102        C107   1.407       .  A
C103        C104   1.403       .  A
C103        H108   1.082       .  S
C104        C105   1.400       .  A
C105        C106   1.400       .  A
C105        H109   1.084       .  S
C106        C107   1.402       .  A
C107        H110   1.082       .  S
C111        C285   1.481       .  S
C111        C112   1.406       .  A
C111        C116   1.405       .  A
C112        C113   1.403       .  A
C112        H117   1.083       .  S
C113        C114   1.400       .  A
C114        C115   1.401       .  A
C114        H118   1.084       .  S
C115        C116   1.403       .  A
C116        H119   1.083       .  S
C120        C264   1.489       .  S
C120        C121   1.407       .  A
C120        C125   1.411       .  A
C121        C122   1.402       .  A
C121        H126   1.082       .  S
C122        C123   1.400       .  A
C123        C124   1.401       .  A
C123        H127   1.084       .  S
C124        C125   1.407       .  A
C125        H128   1.082       .  S
O129        C139   1.280       .  A
O129       Ni137   1.907   1_455  S
O130        C140   1.279       .  A
O130       Ni137   1.907       .  S
O131        C141   1.280       .  A
O131       Ni137   1.911   1_455  S
O132        C142   1.281       .  A
O132       Ni137   1.912       .  S
O133        C142   1.282       .  A
O133       Ni138   1.919       .  S
O134        C141   1.282       .  A
O134       Ni138   1.919   1_455  S
O135        C140   1.281       .  A
O135       Ni138   1.915       .  S
O136        C139   1.281       .  A
O136       Ni138   1.916   1_455  S
Ni137      Ni138   2.391       .  S
C139        C173   1.469       .  S
C140        C241   1.468       .  S
C141        C202   1.473       .  S
C142        C234   1.473       .  S
O143        C153   1.282       .  A
O143       Ni151   1.925       .  S
O144        C154   1.282       .  A
O144       Ni151   1.923   1_455  S
O145        C155   1.282       .  A
O145       Ni151   1.918       .  S
O146        C156   1.282       .  A
O146       Ni151   1.920   1_455  S
O147        C156   1.281       .  A
O147       Ni152   1.912   1_455  S
O148        C155   1.280       .  A
O148       Ni152   1.910       .  S
O149        C154   1.280       .  A
O149       Ni152   1.910   1_455  S
O150        C153   1.281       .  A
O150       Ni152   1.911       .  S
Ni151      Ni152   2.390       .  S
C153        C250   1.476       .  S
C154        C184   1.475       .  S
C155        C223   1.472       .  S
C156        C191   1.474       .  S
O157        C167   1.282       .  A
O157       Ni165   1.919       .  S
O158        C168   1.281       .  A
O158       Ni565   1.917       .  S
O159        C169   1.282       .  A
O159       Ni165   1.920       .  S
O160        C170   1.281       .  A
O160       Ni565   1.918       .  S
O161        C170   1.282       .  A
O161       Ni566   1.916       .  S
O162        C169   1.281       .  A
O162       Ni166   1.913       .  S
O163        C168   1.281       .  A
O163       Ni566   1.911       .  S
O164        C167   1.281       .  A
O164       Ni166   1.912       .  S
Ni165       O558   1.916   1_554  S
Ni165       O560   1.920   1_554  S
Ni165      Ni166   2.390       .  S
Ni166       O561   1.910   1_554  S
Ni166       O563   1.910   1_554  S
C167        C193   1.475       .  S
C168        C175   1.472       .  S
C169        C200   1.475       .  S
C170        C182   1.475       .  S
C171        C375   1.488       .  S
C171        C172   1.408       .  A
C171        C176   1.409       .  A
C172        C173   1.402       .  A
C172        H177   1.081       .  S
C173        C174   1.399       .  A
C174        C175   1.398       .  A
C174        H178   1.084       .  S
C175        C176   1.403       .  A
C176        H179   1.082       .  S
C180        C318   1.489       .  S
C180        C181   1.409       .  A
C180        C185   1.409       .  A
C181        C182   1.405       .  A
C181        H186   1.083       .  S
C182        C183   1.400       .  A
C183        C184   1.401       .  A
C183        H187   1.084       .  S
C184        C185   1.405       .  A
C185        H188   1.082       .  S
C189        C267   1.490       .  S
C189        C190   1.408       .  A
C189        C194   1.409       .  A
C190        C191   1.404       .  A
C190        H195   1.082       .  S
C191        C192   1.400       .  A
C192        C193   1.400       .  A
C192        H196   1.084       .  S
C193        C194   1.404       .  A
C194        H197   1.082       .  S
C198        C339   1.485       .  S
C198        C199   1.407       .  A
C198        C203   1.407       .  A
C199        C200   1.405       .  A
C199        H204   1.083       .  S
C200        C201   1.401       .  A
C201        C202   1.401       .  A
C201        H205   1.084       .  S
C202        C203   1.403       .  A
C203        H206   1.083       .  S
O207        C217   1.282       .  A
O207       Ni615   1.919       .  S
O208        C218   1.281       .  A
O208       Ni215   1.919       .  S
O209        C219   1.281       .  A
O209       Ni615   1.918       .  S
O210        C220   1.281       .  A
O210       Ni215   1.916       .  S
O211        C220   1.281       .  A
O211       Ni216   1.912       .  S
O212        C219   1.281       .  A
O212       Ni616   1.913       .  S
O213        C218   1.281       .  A
O213       Ni216   1.913       .  S
O214        C217   1.280       .  A
O214       Ni616   1.910       .  S
Ni215       O607   1.919   1_554  S
Ni215       O609   1.916   1_554  S
Ni215      Ni216   2.390       .  S
Ni216       O612   1.911   1_554  S
Ni216       O614   1.913   1_554  S
C217        C225   1.473       .  S
C218        C243   1.474       .  S
C219        C232   1.474       .  S
C220        C252   1.473       .  S
C221        C303   1.485       .  S
C221        C222   1.406       .  A
C221        C226   1.408       .  A
C222        C223   1.402       .  A
C222        H227   1.082       .  S
C223        C224   1.401       .  A
C224        C225   1.401       .  A
C224        H228   1.084       .  S
C225        C226   1.403       .  A
C226        H229   1.082       .  S
C230        C393   1.486       .  S
C230        C231   1.408       .  A
C230        C235   1.406       .  A
C231        C232   1.405       .  A
C231        H236   1.083       .  S
C232        C233   1.401       .  A
C233        C234   1.401       .  A
C233        H237   1.084       .  S
C234        C235   1.403       .  A
C235        H238   1.082       .  S
C239        C357   1.482       .  S
C239        C240   1.405       .  A
C239        C244   1.408       .  A
C240        C241   1.400       .  A
C240        H245   1.083       .  S
C241        C242   1.399       .  A
C242        C243   1.400       .  A
C242        H246   1.084       .  S
C243        C244   1.405       .  A
C244        H247   1.082       .  S
C248        C282   1.483       .  S
C248        C249   1.409       .  A
C248        C253   1.405       .  A
C249        C250   1.406       .  A
C249        H254   1.083       .  S
C250        C251   1.402       .  A
C251        C252   1.400       .  A
C251        H255   1.084       .  S
C252        C253   1.402       .  A
C253        H256   1.083       .  S
C257        C262   1.382       .  A
C257        C258   1.404       .  A
C257        N263   1.344       .  A
C258        C259   1.403       .  A
C258        H269   1.082       .  S
C259        C268   1.377       .  A
C259        C260   1.382       .  A
C260        C261   1.404       .  A
C260        N266   1.344       .  A
C261        C262   1.403       .  A
C261        H270   1.082       .  S
C262        C265   1.376       .  A
N263        C264   1.359       .  A
N263        H273   1.044       .  S
C264        C265   1.401       .  A
C265        H271   1.082       .  S
N266        C267   1.359       .  A
N266        H274   1.044       .  S
C267        C268   1.400       .  A
C268        H272   1.081       .  S
C275        C280   1.384       .  A
C275        C276   1.403       .  A
C275        N281   1.344       .  A
C276        C277   1.403       .  A
C276        H287   1.082       .  S
C277        C286   1.377       .  A
C277        C278   1.384       .  A
C278        C279   1.403       .  A
C278        N284   1.343       .  A
C279        C280   1.403       .  A
C279        H288   1.083       .  S
C280        C283   1.376       .  A
N281        C282   1.357       .  A
N281        H291   1.044       .  S
C282        C283   1.398       .  A
C283        H289   1.082       .  S
N284        C285   1.357       .  A
N284        H292   1.044       .  S
C285        C286   1.397       .  A
C286        H290   1.082       .  S
C293        C298   1.383       .  A
C293        C294   1.402       .  A
C293        N299   1.341       .  A
C294        C295   1.401       .  A
C294        H305   1.082       .  S
C295        C304   1.375       .  A
C295        C296   1.383       .  A
C296        C297   1.403       .  A
C296        N302   1.342       .  A
C297        C298   1.402       .  A
C297        H306   1.082       .  S
C298        C301   1.376       .  A
N299        C300   1.358       .  A
N299        H309   1.043       .  S
C300        C301   1.399       .  A
C301        H307   1.082       .  S
N302        C303   1.359       .  A
N302        H310   1.044       .  S
C303        C304   1.398       .  A
C304        H308   1.082       .  S
C311        C316   1.383       .  A
C311        C312   1.404       .  A
C311        N317   1.344       .  A
C312        C313   1.403       .  A
C312        H323   1.082       .  S
C313        C322   1.378       .  A
C313        C314   1.382       .  A
C314        C315   1.405       .  A
C314        N320   1.344       .  A
C315        C316   1.404       .  A
C315        H324   1.082       .  S
C316        C319   1.379       .  A
N317        C318   1.359       .  A
N317        H327   1.044       .  S
C318        C319   1.400       .  A
C319        H325   1.082       .  S
N320        C321   1.359       .  A
N320        H328   1.044       .  S
C321        C322   1.399       .  A
C322        H326   1.082       .  S
C329        C334   1.383       .  A
C329        C330   1.404       .  A
C329        N335   1.343       .  A
C330        C331   1.403       .  A
C330        H341   1.083       .  S
C331        C340   1.377       .  A
C331        C332   1.383       .  A
C332        C333   1.404       .  A
C332        N338   1.344       .  A
C333        C334   1.403       .  A
C333        H342   1.083       .  S
C334        C337   1.378       .  A
N335        C336   1.358       .  A
N335        H345   1.044       .  S
C336        C337   1.399       .  A
C337        H343   1.082       .  S
N338        C339   1.358       .  A
N338        H346   1.044       .  S
C339        C340   1.399       .  A
C340        H344   1.082       .  S
C347        C352   1.383       .  A
C347        C348   1.403       .  A
C347        N353   1.342       .  A
C348        C349   1.402       .  A
C348        H359   1.083       .  S
C349        C358   1.375       .  A
C349        C350   1.383       .  A
C350        C351   1.401       .  A
C350        N356   1.342       .  A
C351        C352   1.400       .  A
C351        H360   1.082       .  S
C352        C355   1.374       .  A
N353        C354   1.358       .  A
N353        H363   1.044       .  S
C354        C355   1.397       .  A
C355        H361   1.082       .  S
N356        C357   1.357       .  A
N356        H364   1.044       .  S
C357        C358   1.399       .  A
C358        H362   1.082       .  S
C365        C370   1.382       .  A
C365        C366   1.403       .  A
C365        N371   1.343       .  A
C366        C367   1.402       .  A
C366        H377   1.082       .  S
C367        C376   1.376       .  A
C367        C368   1.382       .  A
C368        C369   1.402       .  A
C368        N374   1.342       .  A
C369        C370   1.401       .  A
C369        H378   1.082       .  S
C370        C373   1.375       .  A
N371        C372   1.360       .  A
N371        H381   1.043       .  S
C372        C373   1.399       .  A
C373        H379   1.081       .  S
N374        C375   1.359       .  A
N374        H382   1.043       .  S
C375        C376   1.400       .  A
C376        H380   1.081       .  S
C383        C388   1.383       .  A
C383        C384   1.404       .  A
C383        N389   1.343       .  A
C384        C385   1.402       .  A
C384        H395   1.082       .  S
C385        C394   1.378       .  A
C385        C386   1.383       .  A
C386        C387   1.405       .  A
C386        N392   1.343       .  A
C387        C388   1.404       .  A
C387        H396   1.082       .  S
C388        C391   1.379       .  A
N389        C390   1.358       .  A
N389        H399   1.044       .  S
C390        C391   1.399       .  A
C391        H397   1.082       .  S
N392        C393   1.359       .  A
N392        H400   1.044       .  S
C393        C394   1.398       .  A
C394        H398   1.082       .  S
O401        C411   1.282       .  A
O402        C412   1.281       .  A
O402       Ni409   1.916       .  S
O403        C413   1.281       .  A
O403       Ni409   1.917       .  S
O404        C414   1.282       .  A
O405        C414   1.281       .  A
O405       Ni410   1.912       .  S
O406        C413   1.280       .  A
O407        C412   1.280       .  A
O408        C411   1.280       .  A
O408       Ni410   1.908       .  S
C411        C426   1.471       .  S
C412        C437   1.471       .  S
C413        C444   1.473       .  S
C414        C419   1.474       .  S
C415        C790   1.484       .  S
C415        C416   1.408       .  A
C415        C420   1.407       .  A
C416        C417   1.403       .  A
C416        H421   1.083       .  S
C417        C464   1.474       .  S
C417        C418   1.401       .  A
C418        C419   1.401       .  A
C418        H422   1.084       .  S
C419        C420   1.403       .  A
C420        H423   1.082       .  S
C424        C772   1.486       .  S
C424        C425   1.408       .  A
C424        C429   1.408       .  A
C425        C426   1.403       .  A
C425        H430   1.082       .  S
C426        C427   1.399       .  A
C427        C428   1.399       .  A
C427        H431   1.084       .  S
C428        C475   1.472       .  S
C428        C429   1.402       .  A
C429        H432   1.082       .  S
C433        C754   1.483       .  S
C433        C434   1.407       .  A
C433        C438   1.406       .  A
C434        C435   1.403       .  A
C434        H439   1.082       .  S
C435        C461   1.472       .  S
C435        C436   1.400       .  A
C436        C437   1.400       .  A
C436        H440   1.084       .  S
C437        C438   1.402       .  A
C438        H441   1.083       .  S
C442        C736   1.488       .  S
C442        C443   1.409       .  A
C442        C447   1.408       .  A
C443        C444   1.402       .  A
C443        H448   1.081       .  S
C444        C445   1.399       .  A
C445        C446   1.399       .  A
C445        H449   1.084       .  S
C446        C477   1.471       .  S
C446        C447   1.404       .  A
C447        H450   1.081       .  S
O451        C461   1.280       .  A
O451       Ni459   1.910       .  S
O452        C462   1.280       .  A
O452       Ni459   1.910       .  S
O453        C463   1.280       .  A
O453       Ni459   1.910       .  S
O454        C464   1.280       .  A
O454       Ni459   1.910       .  S
O455        C464   1.282       .  A
O455       Ni460   1.920       .  S
O456        C463   1.282       .  A
O456       Ni460   1.919       .  S
O457        C462   1.282       .  A
O457       Ni460   1.921       .  S
O458        C461   1.282       .  A
O458       Ni460   1.919       .  S
Ni459      Ni460   2.390       .  S
C462        C504   1.474   1_565  S
C463        C513   1.472   1_565  S
O465        C475   1.281       .  A
O465       Ni473   1.917       .  S
O466        C476   1.282       .  A
O466       Ni473   1.919       .  S
O467        C477   1.281       .  A
O467       Ni473   1.916       .  S
O468        C478   1.281       .  A
O468       Ni473   1.915       .  S
O469        C478   1.280       .  A
O469       Ni474   1.906       .  S
O470        C477   1.280       .  A
O470       Ni474   1.910       .  S
O471        C476   1.281       .  A
O471       Ni474   1.913       .  S
O472        C475   1.281       .  A
O472       Ni474   1.911       .  S
Ni473      Ni474   2.391       .  S
C476        C522   1.474   1_565  S
C478        C495   1.469   1_565  S
O479        C489   1.280       .  A
O479       Ni487   1.909       .  S
O480        C490   1.281       .  A
O481        C491   1.280       .  A
O481       Ni487   1.910       .  S
O482        C492   1.280       .  A
O483        C492   1.281       .  A
O484        C491   1.282       .  A
O484       Ni488   1.921       .  S
O485        C490   1.282       .  A
O486        C489   1.282       .  A
O486       Ni488   1.921       .  S
Ni487      Ni488   2.391       .  S
C489        C524   1.472       .  S
C490        C506   1.474       .  S
C491        C515   1.474       .  S
C492        C497   1.468       .  S
C493        C721   1.482       .  S
C493        C494   1.407       .  A
C493        C498   1.406       .  A
C494        C495   1.403       .  A
C494        H499   1.083       .  S
C495        C496   1.398       .  A
C496        C497   1.397       .  A
C496        H500   1.084       .  S
C497        C498   1.402       .  A
C498        H501   1.082       .  S
C502        C700   1.487       .  S
C502        C503   1.409       .  A
C502        C507   1.407       .  A
C503        C504   1.404       .  A
C503        H508   1.082       .  S
C504        C505   1.401       .  A
C505        C506   1.400       .  A
C505        H509   1.084       .  S
C506        C507   1.403       .  A
C507        H510   1.082       .  S
C511        C685   1.481       .  S
C511        C512   1.406       .  A
C511        C516   1.407       .  A
C512        C513   1.402       .  A
C512        H517   1.083       .  S
C513        C514   1.400       .  A
C514        C515   1.402       .  A
C514        H518   1.084       .  S
C515        C516   1.404       .  A
C516        H519   1.083       .  S
C520        C664   1.488       .  S
C520        C521   1.409       .  A
C520        C525   1.408       .  A
C521        C522   1.404       .  A
C521        H526   1.082       .  S
C522        C523   1.400       .  A
C523        C524   1.400       .  A
C523        H527   1.084       .  S
C524        C525   1.403       .  A
C525        H528   1.082       .  S
O529        C539   1.280       .  A
O529       Ni537   1.908       .  S
O530        C540   1.280       .  A
O530       Ni537   1.906   1_655  S
O531        C541   1.280       .  A
O531       Ni537   1.908       .  S
O532        C542   1.280       .  A
O532       Ni537   1.909   1_655  S
O533        C542   1.281       .  A
O533       Ni538   1.916   1_655  S
O534        C541   1.281       .  A
O534       Ni538   1.916       .  S
O535        C540   1.281       .  A
O535       Ni538   1.916   1_655  S
O536        C539   1.281       .  A
O536       Ni538   1.916       .  S
Ni537      Ni538   2.392       .  S
C539        C573   1.469       .  S
C540        C641   1.470       .  S
C541        C602   1.469       .  S
C542        C634   1.471       .  S
O543        C553   1.282       .  A
O543       Ni551   1.921   1_655  S
O544        C554   1.282       .  A
O544       Ni551   1.920       .  S
O545        C555   1.283       .  A
O545       Ni551   1.925   1_655  S
O546        C556   1.283       .  A
O546       Ni551   1.925       .  S
O547        C556   1.280       .  A
O547       Ni552   1.910       .  S
O548        C555   1.280       .  A
O548       Ni552   1.909   1_655  S
O549        C554   1.280       .  A
O549       Ni552   1.910       .  S
O550        C553   1.280       .  A
O550       Ni552   1.909   1_655  S
Ni551      Ni552   2.390       .  S
C553        C650   1.473       .  S
C554        C584   1.474       .  S
C555        C623   1.476       .  S
C556        C591   1.476       .  S
O557        C567   1.282       .  A
O557       Ni565   1.919       .  S
O558        C568   1.281       .  A
O559        C569   1.281       .  A
O559       Ni565   1.916       .  S
O560        C570   1.282       .  A
O561        C570   1.280       .  A
O562        C569   1.281       .  A
O562       Ni566   1.913       .  S
O563        C568   1.280       .  A
O564        C567   1.281       .  A
O564       Ni566   1.913       .  S
Ni565      Ni566   2.390       .  S
C567        C593   1.475       .  S
C568        C575   1.470       .  S
C569        C600   1.474       .  S
C570        C582   1.473       .  S
C571        C775   1.485       .  S
C571        C572   1.406       .  A
C571        C576   1.407       .  A
C572        C573   1.402       .  A
C572        H577   1.082       .  S
C573        C574   1.399       .  A
C574        C575   1.399       .  A
C574        H578   1.084       .  S
C575        C576   1.402       .  A
C576        H579   1.082       .  S
C580        C718   1.482       .  S
C580        C581   1.407       .  A
C580        C585   1.407       .  A
C581        C582   1.402       .  A
C581        H586   1.083       .  S
C582        C583   1.400       .  A
C583        C584   1.401       .  A
C583        H587   1.084       .  S
C584        C585   1.403       .  A
C585        H588   1.082       .  S
C589        C667   1.488       .  S
C589        C590   1.408       .  A
C589        C594   1.409       .  A
C590        C591   1.403       .  A
C590        H595   1.081       .  S
C591        C592   1.402       .  A
C592        C593   1.401       .  A
C592        H596   1.084       .  S
C593        C594   1.403       .  A
C594        H597   1.082       .  S
C598        C739   1.489       .  S
C598        C599   1.409       .  A
C598        C603   1.408       .  A
C599        C600   1.404       .  A
C599        H604   1.081       .  S
C600        C601   1.398       .  A
C601        C602   1.398       .  A
C601        H605   1.084       .  S
C602        C603   1.403       .  A
C603        H606   1.082       .  S
O607        C617   1.282       .  A
O608        C618   1.281       .  A
O608       Ni615   1.918       .  S
O609        C619   1.281       .  A
O610        C620   1.281       .  A
O610       Ni615   1.917       .  S
O611        C620   1.281       .  A
O611       Ni616   1.912       .  S
O612        C619   1.281       .  A
O613        C618   1.280       .  A
O613       Ni616   1.908       .  S
O614        C617   1.281       .  A
Ni615      Ni616   2.391       .  S
C617        C625   1.474       .  S
C618        C643   1.470       .  S
C619        C632   1.470       .  S
C620        C652   1.472       .  S
C621        C703   1.486       .  S
C621        C622   1.409       .  A
C621        C626   1.407       .  A
C622        C623   1.404       .  A
C622        H627   1.082       .  S
C623        C624   1.402       .  A
C624        C625   1.401       .  A
C624        H628   1.084       .  S
C625        C626   1.402       .  A
C626        H629   1.082       .  S
C630        C793   1.484       .  S
C630        C631   1.407       .  A
C630        C635   1.406       .  A
C631        C632   1.403       .  A
C631        H636   1.083       .  S
C632        C633   1.399       .  A
C633        C634   1.400       .  A
C633        H637   1.084       .  S
C634        C635   1.403       .  A
C635        H638   1.082       .  S
C639        C757   1.482       .  S
C639        C640   1.407       .  A
C639        C644   1.407       .  A
C640        C641   1.402       .  A
C640        H645   1.083       .  S
C641        C642   1.399       .  A
C642        C643   1.398       .  A
C642        H646   1.084       .  S
C643        C644   1.402       .  A
C644        H647   1.082       .  S
C648        C682   1.482       .  S
C648        C649   1.407       .  A
C648        C653   1.406       .  A
C649        C650   1.405       .  A
C649        H654   1.083       .  S
C650        C651   1.401       .  A
C651        C652   1.399       .  A
C651        H655   1.084       .  S
C652        C653   1.402       .  A
C653        H656   1.083       .  S
C657        C662   1.382       .  A
C657        C658   1.403       .  A
C657        N663   1.342       .  A
C658        C659   1.402       .  A
C658        H669   1.082       .  S
C659        C668   1.376       .  A
C659        C660   1.382       .  A
C660        C661   1.404       .  A
C660        N666   1.342       .  A
C661        C662   1.402       .  A
C661        H670   1.082       .  S
C662        C665   1.377       .  A
N663        C664   1.359       .  A
N663        H673   1.044       .  S
C664        C665   1.400       .  A
C665        H671   1.082       .  S
N666        C667   1.359       .  A
N666        H674   1.044       .  S
C667        C668   1.400       .  A
C668        H672   1.082       .  S
C675        C680   1.384       .  A
C675        C676   1.403       .  A
C675        N681   1.344       .  A
C676        C677   1.402       .  A
C676        H687   1.083       .  S
C677        C686   1.376       .  A
C677        C678   1.384       .  A
C678        C679   1.403       .  A
C678        N684   1.343       .  A
C679        C680   1.402       .  A
C679        H688   1.083       .  S
C680        C683   1.376       .  A
N681        C682   1.357       .  A
N681        H691   1.044       .  S
C682        C683   1.398       .  A
C683        H689   1.082       .  S
N684        C685   1.357       .  A
N684        H692   1.044       .  S
C685        C686   1.398       .  A
C686        H690   1.082       .  S
C693        C698   1.382       .  A
C693        C694   1.404       .  A
C693        N699   1.343       .  A
C694        C695   1.403       .  A
C694        H705   1.082       .  S
C695        C704   1.377       .  A
C695        C696   1.383       .  A
C696        C697   1.402       .  A
C696        N702   1.342       .  A
C697        C698   1.401       .  A
C697        H706   1.082       .  S
C698        C701   1.375       .  A
N699        C700   1.359       .  A
N699        H709   1.044       .  S
C700        C701   1.398       .  A
C701        H707   1.082       .  S
N702        C703   1.358       .  A
N702        H710   1.043       .  S
C703        C704   1.400       .  A
C704        H708   1.082       .  S
C711        C716   1.383       .  A
C711        C712   1.403       .  A
C711        N717   1.342       .  A
C712        C713   1.402       .  A
C712        H723   1.082       .  S
C713        C722   1.376       .  A
C713        C714   1.383       .  A
C714        C715   1.402       .  A
C714        N720   1.341       .  A
C715        C716   1.401       .  A
C715        H724   1.082       .  S
C716        C719   1.375       .  A
N717        C718   1.358       .  A
N717        H727   1.044       .  S
C718        C719   1.398       .  A
C719        H725   1.082       .  S
N720        C721   1.357       .  A
N720        H728   1.044       .  S
C721        C722   1.398       .  A
C722        H726   1.082       .  S
C729        C734   1.382       .  A
C729        C730   1.405       .  A
C729        N735   1.344       .  A
C730        C731   1.404       .  A
C730        H741   1.083       .  S
C731        C740   1.378       .  A
C731        C732   1.382       .  A
C732        C733   1.401       .  A
C732        N738   1.341       .  A
C733        C734   1.400       .  A
C733        H742   1.083       .  S
C734        C737   1.373       .  A
N735        C736   1.360       .  A
N735        H745   1.044       .  S
C736        C737   1.399       .  A
C737        H743   1.081       .  S
N738        C739   1.358       .  A
N738        H746   1.044       .  S
C739        C740   1.402       .  A
C740        H744   1.082       .  S
C747        C752   1.383       .  A
C747        C748   1.402       .  A
C747        N753   1.341       .  A
C748        C749   1.401       .  A
C748        H759   1.082       .  S
C749        C758   1.375       .  A
C749        C750   1.383       .  A
C750        C751   1.402       .  A
C750        N756   1.341       .  A
C751        C752   1.401       .  A
C751        H760   1.082       .  S
C752        C755   1.376       .  A
N753        C754   1.357       .  A
N753        H763   1.044       .  S
C754        C755   1.398       .  A
C755        H761   1.082       .  S
N756        C757   1.358       .  A
N756        H764   1.044       .  S
C757        C758   1.398       .  A
C758        H762   1.082       .  S
C765        C770   1.382       .  A
C765        C766   1.402       .  A
C765        N771   1.342       .  A
C766        C767   1.401       .  A
C766        H777   1.082       .  S
C767        C776   1.375       .  A
C767        C768   1.382       .  A
C768        C769   1.402       .  A
C768        N774   1.342       .  A
C769        C770   1.401       .  A
C769        H778   1.082       .  S
C770        C773   1.375       .  A
N771        C772   1.359       .  A
N771        H781   1.043       .  S
C772        C773   1.399       .  A
C773        H779   1.082       .  S
N774        C775   1.359       .  A
N774        H782   1.044       .  S
C775        C776   1.399       .  A
C776        H780   1.082       .  S
C783        C788   1.383       .  A
C783        C784   1.404       .  A
C783        N789   1.343       .  A
C784        C785   1.403       .  A
C784        H795   1.083       .  S
C785        C794   1.377       .  A
C785        C786   1.383       .  A
C786        C787   1.402       .  A
C786        N792   1.342       .  A
C787        C788   1.401       .  A
C787        H796   1.083       .  S
C788        C791   1.376       .  A
N789        C790   1.358       .  A
N789        H799   1.044       .  S
C790        C791   1.398       .  A
C791        H797   1.082       .  S
N792        C793   1.358       .  A
N792        H800   1.044       .  S
C793        C794   1.399       .  A
C794        H798   1.082       .  S
