geometry optimzed in LAMMPS
_audit_creation_date              2020-11-30 
_audit_creation_method            'lammps2cif' 
_symmetry_space_group_name_H-M    'P1' 
_symmetry_Int_Tables_number       1 
_symmetry_cell_setting            triclinic 
loop_ 
_symmetry_equiv_pos_as_xyz 
  x,y,z 
_cell_length_a                    32.73695387 
_cell_length_b                    32.7180704521001 
_cell_length_c                    32.69668790891814 
_cell_angle_alpha                 90.10063822155777 
_cell_angle_beta                  89.88460669421758 
_cell_angle_gamma                 90.23896408406424 
loop_ 
_atom_site_label 
_atom_site_type_symbol 
_atom_site_fract_x 
_atom_site_fract_y 
_atom_site_fract_z 
_atom_site_charge 
O1          O  0.57000053  0.61018607  0.96571193    -0.84100
O2          O  0.60886860  0.67195241  0.92753875    -0.81100
C3          C  0.62885300  0.70492846  0.92639173     0.99400
O4          O  0.66279610  0.70819978  0.94493293    -0.81200
O5          O  0.64476420  0.71984778  0.02544048    -0.83800
C6          C  0.62768104  0.71328955  0.05936344     1.03900
O7          O  0.62513128  0.67765424  0.07328349    -0.76600
O8          O  0.56558431  0.64540219  0.02275594    -0.76800
C9          C  0.54918636  0.63019300  0.99127889     1.03900
O10         O  0.64482684  0.56433956  0.96807843    -0.84100
O11         O  0.68162504  0.62366490  0.92019900    -0.81100
C12         C  0.71681198  0.62654625  0.93555167     0.99400
O13         O  0.72192579  0.64489609  0.96911005    -0.81200
O14         O  0.70661478  0.66070428  0.04979806    -0.83800
C15         C  0.70237275  0.62700423  0.06863903     1.03900
O16         O  0.67073514  0.60538292  0.06418629    -0.76600
O17         O  0.60790630  0.56920137  0.02384128    -0.76700
C18         C  0.62835178  0.54810201  0.99904099     1.03800
Cr19       Cr  0.62781901  0.61927192  0.94903222     1.93700
Cr20       Cr  0.68128512  0.68053541  0.99710812     1.93200
Cr21       Cr  0.61915380  0.62585388  0.04218676     1.39100
O22         O  0.64309519  0.64200237  0.99606194    -1.21800
O23         O  0.56291997  0.36733980  0.01560043    -0.84100
O24         O  0.60259478  0.30998164  0.06097863    -0.81100
C25         C  0.62535869  0.27946289  0.06640271     0.99400
O26         O  0.65959648  0.27711793  0.04819826    -0.81200
O27         O  0.64393713  0.26166795  0.96747511    -0.83800
C28         C  0.62874288  0.26689816  0.93253305     1.03900
O29         O  0.63083124  0.30142380  0.91577752    -0.76600
O30         O  0.56579235  0.33353382  0.95735918    -0.76800
C31         C  0.54553862  0.34837020  0.98644916     1.03900
O32         O  0.63625646  0.41803985  0.01797775    -0.84100
O33         O  0.67294440  0.36295923  0.06918918    -0.81100
C34         C  0.70920525  0.36019555  0.05595526     0.99400
O35         O  0.71676953  0.34107001  0.02329678    -0.81200
O36         O  0.70697053  0.32106336  0.94252282    -0.83800
C37         C  0.70451831  0.35516202  0.92402613     1.03900
O38         O  0.67302822  0.37673457  0.92730940    -0.76600
O39         O  0.60501856  0.41091313  0.95940622    -0.76700
C40         C  0.62247505  0.43322122  0.98540898     1.03800
Cr41       Cr  0.62017197  0.36288745  0.03751054     1.93700
Cr42       Cr  0.67903544  0.30282565  0.99513416     1.93200
Cr43       Cr  0.62027643  0.35435591  0.94389788     1.39100
O44         O  0.63984002  0.33984368  0.99248915    -1.21800
O45         O  0.37610322  0.56665046  0.97730257    -0.84100
O46         O  0.31220143  0.60184677  0.93735801    -0.81100
C47         C  0.28081224  0.62373855  0.93354546     0.99400
O48         O  0.27825752  0.65826320  0.95108820    -0.81200
O49         O  0.26245709  0.64274918  0.03109762    -0.83800
C50         C  0.26720975  0.62392382  0.06432484     1.03900
O51         O  0.30221008  0.62133515  0.08025964    -0.76600
O52         O  0.34025768  0.56213722  0.03375829    -0.76800
C53         C  0.35615702  0.54566810  0.00260579     1.03900
O54         O  0.41853176  0.64268365  0.97715273    -0.84100
O55         O  0.35840853  0.67436959  0.92722798    -0.81100
C56         C  0.35717225  0.71009241  0.94125073     0.99400
O57         O  0.34087167  0.71704320  0.97546850    -0.81200
O58         O  0.32116765  0.70649241  0.05572400    -0.83800
C59         C  0.35506168  0.70422325  0.07428959     1.03900
O60         O  0.37522096  0.67144282  0.07362126    -0.76600
O61         O  0.41450561  0.60970574  0.03559102    -0.76700
C62         C  0.43510616  0.62880671  0.00908144     1.03800
Cr63       Cr  0.36452172  0.62284765  0.95857006     1.93700
Cr64       Cr  0.30349777  0.67827014  0.00357682     1.93200
Cr65       Cr  0.35660975  0.61785331  0.05221354     1.39100
O66         O  0.34128041  0.63967364  0.00490067    -1.21800
O67         O  0.37434858  0.40803817  0.04203743    -0.84100
O68         O  0.30520173  0.37417269  0.07226600    -0.81100
C69         C  0.27357830  0.35252119  0.07535642     0.99400
O70         O  0.27089089  0.31842852  0.05669969    -0.81200
O71         O  0.26225546  0.33751923  0.97548894    -0.83800
C72         C  0.27093620  0.35674719  0.94321158     1.03900
O73         O  0.30762788  0.36011074  0.93130764    -0.76600
O74         O  0.34402660  0.41539780  0.98308891    -0.76800
C75         C  0.35763123  0.43049224  0.01592110     1.03900
O76         O  0.41264055  0.33067186  0.04453580    -0.84100
O77         O  0.34570635  0.29914669  0.08459912    -0.81100
C78         C  0.34864976  0.26473609  0.06782680     0.99400
O79         O  0.33406741  0.25907110  0.03270289    -0.81200
O80         O  0.31970658  0.27402536  0.95197869    -0.83800
C81         C  0.35426265  0.27630023  0.93439952     1.03900
O82         O  0.37715507  0.30693310  0.94012216    -0.76600
O83         O  0.41647973  0.36458148  0.98652699    -0.76700
C84         C  0.43342609  0.34589389  0.01593856     1.03800
Cr85       Cr  0.35794333  0.35165383  0.05691043     1.93700
Cr86       Cr  0.29954184  0.29990818  0.00458203     1.93200
Cr87       Cr  0.35974402  0.36005351  0.96356711     1.39100
O88         O  0.33900214  0.33708264  0.00800251    -1.21800
O89         O  0.36741794  0.01554803  0.56890357    -0.84100
O90         O  0.30173699  0.04979423  0.60605663    -0.81100
C91         C  0.27063962  0.05159691  0.62848218     0.99400
O92         O  0.27048539  0.03461253  0.66332368    -0.81200
O93         O  0.26782326  0.95207324  0.64769630    -0.83800
C94         C  0.27870598  0.91813057  0.63303501     1.03900
O95         O  0.31578415  0.90734133  0.63407938    -0.76600
O96         O  0.34867957  0.95100605  0.57275815    -0.76800
C97         C  0.35710461  0.98206006  0.55211772     1.03900
O98         O  0.41385638  0.03043317  0.64252424    -0.84100
O99         O  0.35037025  0.06845375  0.67861894    -0.81100
C100        C  0.35062949  0.05412278  0.71466626     0.99400
O101        O  0.33557152  0.01931687  0.72198853    -0.81200
O102        O  0.32522085  0.93623772  0.71271941    -0.83800
C103        C  0.36101082  0.92157735  0.71257179     1.03900
O104        O  0.38524391  0.92983577  0.68393611    -0.76600
O105        O  0.42076282  0.96803234  0.61907131    -0.76700
C106        C  0.43606020  0.00114491  0.63205920     1.03800
Cr107      Cr  0.35693541  0.03709840  0.62564214     1.93700
Cr108      Cr  0.30275061  0.98597499  0.68362625     1.93200
Cr109      Cr  0.36571802  0.94295524  0.62902954     1.39100
O110        O  0.34176755  0.98877539  0.64592884    -1.21800
O111        O  0.36406056  0.97501792  0.42194667    -0.84100
O112        O  0.30585806  0.92938283  0.38251510    -0.81100
C113        C  0.27477090  0.92505966  0.36027680     0.99400
O114        O  0.27225754  0.94320072  0.32604656    -0.81200
O115        O  0.25820324  0.02451161  0.33981939    -0.83800
C116        C  0.26419257  0.05953151  0.35486537     1.03900
O117        O  0.29949645  0.07495538  0.35411093    -0.76600
O118        O  0.33083980  0.03321641  0.41862155    -0.76800
C119        C  0.34636902  0.00499466  0.43918980     1.03900
O120        O  0.41450088  0.97025058  0.34949274    -0.84100
O121        O  0.35870044  0.92006384  0.31216910    -0.81100
C122        C  0.35627641  0.93312759  0.27582098     0.99400
O123        O  0.33693402  0.96551973  0.26809039    -0.81200
O124        O  0.31881609  0.04688026  0.27690685    -0.83800
C125        C  0.35304499  0.06521449  0.27987794     1.03900
O126        O  0.37428511  0.06180950  0.31161595    -0.76600
O127        O  0.40861497  0.02975487  0.37946387    -0.76700
C128        C  0.43052996  0.00193333  0.36445003     1.03800
Cr129      Cr  0.35887892  0.95222510  0.36488293     1.93700
Cr130      Cr  0.29926614  0.99511892  0.30556626     1.93200
Cr131      Cr  0.35191941  0.04588831  0.36428715     1.39100
O132        O  0.33648618  0.99744515  0.34485364    -1.21800
O133        O  0.61689008  0.96448057  0.58012678    -0.84100
O134        O  0.68227147  0.92899686  0.61708662    -0.81100
C135        C  0.71276163  0.92485864  0.63997120     0.99400
O136        O  0.71252672  0.94018099  0.67575575    -0.81200
O137        O  0.71837473  0.02242831  0.66271884    -0.83800
C138        C  0.70948189  0.05685813  0.64832585     1.03900
O139        O  0.67291960  0.06930229  0.64843729    -0.76600
O140        O  0.64191071  0.02667384  0.58452132    -0.76800
C141        C  0.62959462  0.99717267  0.56339595     1.03900
O142        O  0.57054487  0.95024368  0.65371532    -0.84100
O143        O  0.63301841  0.90909532  0.68870286    -0.81100
C144        C  0.63152894  0.92277966  0.72501182     0.99400
O145        O  0.64632152  0.95730722  0.73348779    -0.81200
O146        O  0.65851875  0.03985555  0.72607298    -0.83800
C147        C  0.62294597  0.05521023  0.72434011     1.03900
O148        O  0.60041531  0.04825089  0.69409571    -0.76600
O149        O  0.56688665  0.01170125  0.62739238    -0.76700
C150        C  0.54978077  0.97946489  0.64051168     1.03800
Cr151      Cr  0.62719110  0.94174521  0.63656354     1.93700
Cr152      Cr  0.68121415  0.98977036  0.69677046     1.93200
Cr153      Cr  0.62221837  0.03534637  0.64016883     1.39100
O154        O  0.64357914  0.98891223  0.65782298    -1.21800
O155        O  0.56617916  0.95227995  0.38497577    -0.84100
O156        O  0.60448122  0.92295948  0.31802156    -0.81100
C157        C  0.62719363  0.92095529  0.28715634     0.99400
O158        O  0.66075065  0.94060419  0.28606021    -0.81200
O159        O  0.63903486  0.02126158  0.27988954    -0.83800
C160        C  0.62068601  0.05399433  0.28838602     1.03900
O161        O  0.61754598  0.06587318  0.32521737    -0.76600
O162        O  0.56105788  0.01351998  0.35850824    -0.76800
C163        C  0.54475659  0.98062733  0.37021370     1.03900
O164        O  0.64225287  0.94861714  0.42772936    -0.84100
O165        O  0.67861586  0.91145827  0.36332651    -0.81100
C166        C  0.71303524  0.92894699  0.36515192     0.99400
O167        O  0.71767429  0.96436754  0.35095553    -0.81200
O168        O  0.70111551  0.04492441  0.33888830    -0.83800
C169        C  0.69882245  0.05994269  0.37463099     1.03900
O170        O  0.66818819  0.05276740  0.39687287    -0.76600
O171        O  0.60862889  0.00640602  0.43284689    -0.76700
C172        C  0.62636374  0.97604116  0.44915701     1.03800
Cr173      Cr  0.62414298  0.93783735  0.37206828     1.93700
Cr174      Cr  0.67685275  0.99237940  0.31670174     1.93200
Cr175      Cr  0.61567326  0.03132598  0.37669999     1.39100
O176        O  0.63895705  0.98734801  0.35515179    -1.21800
O177        O  0.97129743  0.36640298  0.57802867    -0.84100
O178        O  0.93238053  0.30177932  0.61278689    -0.81100
C179        C  0.92430427  0.27254000  0.63626337     0.99400
O180        O  0.94098267  0.27005611  0.67118370    -0.81200
O181        O  0.02335263  0.25869800  0.65760179    -0.83800
C182        C  0.05775287  0.26622609  0.64184002     1.03900
O183        O  0.07232593  0.30227223  0.64285925    -0.76600
O184        O  0.03111655  0.33705621  0.58155496    -0.76800
C185        C  0.00173664  0.34968667  0.56084380     1.03900
O186        O  0.95944973  0.40990284  0.65449085    -0.84100
O187        O  0.91446702  0.34817592  0.68497154    -0.81100
C188        C  0.92743691  0.34833337  0.72134940     0.99400
O189        O  0.96147346  0.33284070  0.72999674    -0.81200
O190        O  0.04291300  0.31685692  0.72285924    -0.83800
C191        C  0.05947094  0.35205337  0.72268753     1.03900
O192        O  0.05648060  0.37490612  0.69199111    -0.76600
O193        O  0.02042491  0.41305227  0.62694639    -0.76700
C194        C  0.98914062  0.43054939  0.64199898     1.03800
Cr195      Cr  0.94804607  0.35507377  0.63404026     1.93700
Cr196      Cr  0.99244268  0.29721853  0.69265819     1.93200
Cr197      Cr  0.04154145  0.35546920  0.63732443     1.39100
O198        O  0.99406462  0.33580414  0.65474952    -1.21800
O199        O  0.00902428  0.33891009  0.42993738    -0.84100
O200        O  0.05754090  0.30426042  0.36950914    -0.81100
C201        C  0.04250015  0.26891309  0.36726903     0.99400
O202        O  0.00838850  0.26311661  0.35061447    -0.81200
O203        O  0.92863755  0.27612781  0.33366785    -0.83800
C204        C  0.91049104  0.27896796  0.36793867     1.03900
O205        O  0.91203716  0.31177583  0.38827750    -0.76600
O206        O  0.95241993  0.37445976  0.42586105    -0.76800
C207        C  0.97890518  0.35618027  0.44687946     1.03900
O208        O  0.01100062  0.41393042  0.38673271    -0.84100
O209        O  0.05037528  0.37690792  0.32273541    -0.81100
C210        C  0.05280654  0.35532227  0.29079854     0.99400
O211        O  0.03360947  0.32161429  0.28792558    -0.81200
O212        O  0.95356910  0.33844664  0.27362511    -0.83800
C213        C  0.92047156  0.35709635  0.27928518     1.03900
O214        O  0.90571480  0.36018238  0.31483854    -0.76600
O215        O  0.95495460  0.41891398  0.35054072    -0.76700
C216        C  0.98560302  0.43525057  0.36753391     1.03800
Cr217      Cr  0.02816653  0.35702254  0.37536942     1.93700
Cr218      Cr  0.98101806  0.30276781  0.31430789     1.93200
Cr219      Cr  0.93486891  0.36445815  0.36838663     1.39100
O220        O  0.98131398  0.34128737  0.35247760    -1.21800
O221        O  0.95166333  0.60745787  0.41698238    -0.84100
O222        O  0.92208871  0.67804394  0.38482946    -0.81100
C223        C  0.91946734  0.70998646  0.36370070     0.99400
O224        O  0.93774001  0.71295034  0.32941863    -0.81200
O225        O  0.01986287  0.71869192  0.34625335    -0.83800
C226        C  0.05228175  0.70886788  0.36455438     1.03900
O227        O  0.06288863  0.67172766  0.36671357    -0.76600
O228        O  0.01123989  0.63718754  0.42222879    -0.76800
C229        C  0.97981488  0.62236618  0.43874132     1.03900
O230        O  0.94517513  0.57162434  0.33705072    -0.84100
O231        O  0.90579554  0.63884053  0.30924362    -0.81100
C232        C  0.92136074  0.63675368  0.27411249     0.99400
O233        O  0.95692204  0.65026817  0.26802349    -0.81200
O234        O  0.03871127  0.66068587  0.28095922    -0.83800
C235        C  0.05420974  0.62519507  0.28268004     1.03900
O236        O  0.04816610  0.60269360  0.31329512    -0.76600
O237        O  0.00232038  0.56473643  0.37132284    -0.76700
C238        C  0.97251804  0.54933388  0.35160298     1.03800
Cr239      Cr  0.93503969  0.62541508  0.36081960     1.93700
Cr240      Cr  0.98797157  0.68294772  0.30873386     1.93200
Cr241      Cr  0.02793008  0.62082246  0.36677180     1.39100
O242        O  0.98393674  0.64334337  0.34533858    -1.21800
O243        O  0.97228699  0.56142439  0.64153621    -0.84100
O244        O  0.92270757  0.61714323  0.68032036    -0.81100
C245        C  0.93506990  0.62106915  0.71679493     0.99400
O246        O  0.96765847  0.64019394  0.72456262    -0.81200
O247        O  0.04944356  0.65512472  0.71422695    -0.83800
C248        C  0.06772880  0.62103699  0.71066043     1.03900
O249        O  0.06429782  0.59991963  0.67851757    -0.76600
O250        O  0.02997599  0.56809347  0.60861936    -0.76800
C251        C  0.00358594  0.54566767  0.62536194     1.03900
O252        O  0.97500863  0.61343680  0.56959175    -0.84100
O253        O  0.93110962  0.67163198  0.61071310    -0.81100
C254        C  0.92939757  0.70348743  0.63254773     0.99400
O255        O  0.94762647  0.70504334  0.66674267    -0.81200
O256        O  0.02814954  0.71644017  0.65238252    -0.83800
C257        C  0.06296146  0.71021342  0.63747756     1.03900
O258        O  0.07793647  0.67497308  0.63808909    -0.76600
O259        O  0.03327865  0.64702272  0.57273403    -0.76700
C260        C  0.00387478  0.63291215  0.55231357     1.03800
Cr261      Cr  0.95372582  0.61757341  0.62720956     1.93700
Cr262      Cr  0.99832265  0.67634025  0.68659089     1.93200
Cr263      Cr  0.04734495  0.62379387  0.62621810     1.39100
O264        O  0.99945627  0.63925174  0.64699375    -1.21800
O265        O  0.06038473  0.51105133  0.14723698    -0.84100
O266        O  0.11675096  0.56276846  0.18184884    -0.81100
C267        C  0.11946955  0.55100701  0.21861168     0.99400
O268        O  0.13786343  0.51848739  0.22736603    -0.81200
O269        O  0.15627400  0.43792595  0.22166912    -0.83800
C270        C  0.12187102  0.41976760  0.22053682     1.03900
O271        O  0.10080735  0.41974714  0.18832895    -0.76600
O272        O  0.06586942  0.45037596  0.11937383    -0.76800
C273        C  0.04425211  0.47863948  0.13398128     1.03900
O274        O  0.10954782  0.50440224  0.07420777    -0.84100
O275        O  0.16869618  0.55004000  0.11123149    -0.81100
C276        C  0.19929875  0.55619502  0.13371969     0.99400
O277        O  0.20138995  0.53994724  0.16886943    -0.81200
O278        O  0.21579771  0.45864569  0.15733023    -0.83800
C279        C  0.21033738  0.42311672  0.14355667     1.03900
O280        O  0.17547185  0.40682230  0.14508785    -0.76600
O281        O  0.14339799  0.44675996  0.07907235    -0.76700
C282        C  0.12918409  0.47534795  0.05776072     1.03800
Cr283      Cr  0.11559204  0.52858659  0.13042107     1.93700
Cr284      Cr  0.17518434  0.48835793  0.19091393     1.93200
Cr285      Cr  0.12264968  0.43486226  0.13435930     1.39100
O286        O  0.13780939  0.48412081  0.15206285    -1.21800
O287        O  0.10890854  0.05920664  0.51644703    -0.84100
O288        O  0.16873709  0.09716475  0.55988434    -0.81100
C289        C  0.20045697  0.11886120  0.56265543     0.99400
O290        O  0.20269486  0.15349069  0.54526511    -0.81200
O291        O  0.21178545  0.14304329  0.46292913    -0.83800
C292        C  0.20405067  0.12921012  0.42780411     1.03900
O293        O  0.16802253  0.13003382  0.41440534    -0.76600
O294        O  0.13893358  0.06458051  0.45635294    -0.76800
C295        C  0.12615271  0.04317474  0.48546647     1.03900
O296        O  0.05923725  0.13295791  0.52531234    -0.84100
O297        O  0.11750772  0.16741287  0.57430564    -0.81100
C298        C  0.12143999  0.20436533  0.56340785     0.99400
O299        O  0.13852838  0.21312789  0.52990332    -0.81200
O300        O  0.15061183  0.20638858  0.44696085    -0.83800
C301        C  0.11560553  0.20389054  0.43028950     1.03900
O302        O  0.09427951  0.17203169  0.43351342    -0.76600
O303        O  0.06175623  0.10256129  0.46593261    -0.76700
C304        C  0.04142434  0.11873305  0.49431949     1.03800
Cr305      Cr  0.11508358  0.11587705  0.54039192     1.93700
Cr306      Cr  0.17307869  0.17614489  0.49614067     1.93200
Cr307      Cr  0.11728676  0.11893452  0.44655884     1.39100
O308        O  0.13545833  0.13706619  0.49465747    -1.21800
O309        O  0.53122462  0.14230221  0.07830166    -0.84100
O310        O  0.57210526  0.17897682  0.13999314    -0.81100
C311        C  0.55695250  0.21465500  0.13872260     0.99400
O312        O  0.52273781  0.22162193  0.15499983    -0.81200
O313        O  0.44073509  0.21015910  0.16987369    -0.83800
C314        C  0.42450724  0.20830580  0.13468767     1.03900
O315        O  0.43300196  0.17966774  0.11072072    -0.76600
O316        O  0.47013566  0.11482181  0.07517518    -0.76800
C317        C  0.50173232  0.12905391  0.05778177     1.03900
O318        O  0.51978003  0.06814147  0.12470174    -0.84100
O319        O  0.55566980  0.10607601  0.18952258    -0.81100
C320        C  0.55921340  0.12860949  0.22046833     0.99400
O321        O  0.54345789  0.16405898  0.22053216    -0.81200
O322        O  0.46169235  0.14714211  0.22778082    -0.83800
C323        C  0.42722633  0.13223817  0.21911859     1.03900
O324        O  0.41424179  0.13256329  0.18268305    -0.76600
O325        O  0.45754745  0.07088450  0.14982230    -0.76700
C326        C  0.48740596  0.05068042  0.13740571     1.03800
Cr327      Cr  0.54120537  0.12535909  0.13473511     1.93700
Cr328      Cr  0.49248697  0.18313305  0.19052682     1.93200
Cr329      Cr  0.44741432  0.12610552  0.13120979     1.39100
O330        O  0.49377332  0.14478538  0.15218899    -1.21800
O331        O  0.83248130  0.53304306  0.07450056    -0.84100
O332        O  0.79967243  0.57377120  0.13925542    -0.81100
C333        C  0.76463448  0.55766557  0.13849373     0.99400
O334        O  0.75900862  0.52261933  0.15317464    -0.81200
O335        O  0.77247025  0.44162814  0.16520894    -0.83800
C336        C  0.77461277  0.42569644  0.12976387     1.03900
O337        O  0.80569966  0.43124394  0.10772279    -0.76600
O338        O  0.86598288  0.47511735  0.07093742    -0.76800
C339        C  0.84791127  0.50472990  0.05383995     1.03900
O340        O  0.90949255  0.52854165  0.11532863    -0.84100
O341        O  0.87408626  0.56090622  0.18237988    -0.81100
C342        C  0.85215084  0.56440070  0.21366941     0.99400
O343        O  0.81847066  0.54495919  0.21661200    -0.81200
O344        O  0.83595644  0.46299810  0.22420161    -0.83800
C345        C  0.85353977  0.42988001  0.21556237     1.03900
O346        O  0.85643830  0.41806927  0.17876705    -0.76600
O347        O  0.91386850  0.46851994  0.14455406    -0.76700
C348        C  0.93056164  0.50053214  0.13109960     1.03800
Cr349      Cr  0.85255981  0.54510053  0.12940358     1.93700
Cr350      Cr  0.79926788  0.49334298  0.18708422     1.93200
Cr351      Cr  0.85876901  0.45161432  0.12719007     1.39100
O352        O  0.83681577  0.49650835  0.14809620    -1.21800
O353        O  0.53601879  0.91571229  0.15409522    -0.84100
O354        O  0.57519776  0.85059889  0.18663100    -0.81100
C355        C  0.55920496  0.85200228  0.22171389     0.99400
O356        O  0.52366296  0.83845224  0.22732469    -0.81200
O357        O  0.44232234  0.82636394  0.21401339    -0.83800
C358        C  0.42554888  0.86127601  0.21137404     1.03900
O359        O  0.43125082  0.88319992  0.18026030    -0.76600
O360        O  0.47749981  0.92062113  0.12142217    -0.76800
C361        C  0.50838050  0.93700096  0.13867168     1.03900
O362        O  0.53029022  0.87590127  0.07685589    -0.84100
O363        O  0.55998321  0.80793024  0.11162424    -0.81100
C364        C  0.56286314  0.77649864  0.13319569     0.99400
O365        O  0.54511279  0.77448614  0.16785316    -0.81200
O366        O  0.46402832  0.76729262  0.15048968    -0.83800
C367        C  0.43121630  0.77496479  0.13214132     1.03900
O368        O  0.41905419  0.81160753  0.12837682    -0.76600
O369        O  0.46996489  0.84732917  0.07184263    -0.76700
C370        C  0.50207364  0.86081468  0.05538603     1.03800
Cr371      Cr  0.54637403  0.86097967  0.13372979     1.93700
Cr372      Cr  0.49401759  0.80447098  0.18722383     1.93200
Cr373      Cr  0.45277810  0.86406165  0.12725157     1.39100
O374        O  0.49742051  0.84318887  0.14958519    -1.21800
O375        O  0.90814350  0.15179092  0.54499504    -0.84100
O376        O  0.84288584  0.18221154  0.58749262    -0.81100
C377        C  0.84572600  0.21680909  0.57110266     0.99400
O378        O  0.83001164  0.22287638  0.53660585    -0.81200
O379        O  0.81280174  0.20879122  0.45659890    -0.83800
C380        C  0.84725001  0.20792527  0.43883793     1.03900
O381        O  0.87020612  0.17728331  0.44252138    -0.76600
O382        O  0.91095896  0.11880577  0.48638804    -0.76800
C383        C  0.92847957  0.13710991  0.51586591     1.03900
O384        O  0.86953256  0.07355442  0.54236103    -0.84100
O385        O  0.80126696  0.10725662  0.57531923    -0.81100
C386        C  0.76995566  0.12902906  0.57967262     0.99400
O387        O  0.76727546  0.16336660  0.56179775    -0.81200
O388        O  0.75658464  0.14423649  0.48108274    -0.83800
C389        C  0.76393369  0.12556330  0.44813375     1.03900
O390        O  0.80008356  0.12316161  0.43431909    -0.76600
O391        O  0.83965275  0.06684931  0.48285581    -0.76700
C392        C  0.85457760  0.05123633  0.51476340     1.03800
Cr393      Cr  0.85387905  0.12995475  0.55867724     1.93700
Cr394      Cr  0.79447125  0.18211707  0.50916978     1.93200
Cr395      Cr  0.85357964  0.12327402  0.46491140     1.39100
O396        O  0.83378739  0.14498877  0.51060486    -1.21800
O397        O  0.12086975  0.91356161  0.47914631    -0.84100
O398        O  0.17768754  0.87495164  0.43182293    -0.81100
C399        C  0.20924086  0.85348612  0.42728486     0.99400
O400        O  0.21231570  0.81889458  0.44462049    -0.81200
O401        O  0.22739125  0.83086929  0.52589463    -0.83800
C402        C  0.22173365  0.84488714  0.56135914     1.03900
O403        O  0.18662048  0.84341598  0.57699898    -0.76600
O404        O  0.15584115  0.90991079  0.53643729    -0.76800
C405        C  0.13937347  0.93068312  0.50876880     1.03900
O406        O  0.07019711  0.84083429  0.47527791    -0.84100
O407        O  0.12448967  0.80488477  0.42280823    -0.81100
C408        C  0.12783359  0.76819832  0.43449008     0.99400
O409        O  0.14820306  0.75970315  0.46609385    -0.81200
O410        O  0.16655648  0.76793991  0.54769578    -0.83800
C411        C  0.13279281  0.77109322  0.56681621     1.03900
O412        O  0.11143974  0.80276392  0.56384916    -0.76600
O413        O  0.07779378  0.87223595  0.53371666    -0.76700
C414        C  0.05497328  0.85679910  0.50687465     1.03800
Cr415      Cr  0.12522333  0.85686606  0.45560863     1.93700
Cr416      Cr  0.18587931  0.79715615  0.49626964     1.93200
Cr417      Cr  0.13428626  0.85543722  0.54871569     1.39100
O418        O  0.14875151  0.83640739  0.49984307    -1.21800
O419        O  0.11019994  0.52740180  0.92110086    -0.84100
O420        O  0.17995094  0.55806426  0.88594443    -0.81100
C421        C  0.21240611  0.55796079  0.86517446     0.99400
O422        O  0.21428696  0.53927896  0.83111219    -0.81200
O423        O  0.22071125  0.45881625  0.85055166    -0.83800
C424        C  0.21152650  0.42700494  0.87019856     1.03900
O425        O  0.17468128  0.41558106  0.87341469    -0.76600
O426        O  0.13981376  0.46806783  0.92780260    -0.76800
C427        C  0.12438772  0.49951285  0.94354788     1.03900
O428        O  0.07212958  0.52950552  0.84231572    -0.84100
O429        O  0.13802329  0.56947988  0.81017675    -0.81100
C430        C  0.13676141  0.55239348  0.77559794     0.99400
O431        O  0.15101479  0.51704408  0.77112762    -0.81200
O432        O  0.16223487  0.43659154  0.78732926    -0.83800
C433        C  0.12723420  0.42001326  0.78994034     1.03900
O434        O  0.10489446  0.42564008  0.82078716    -0.76600
O435        O  0.06695598  0.47287222  0.87799763    -0.76700
C436        C  0.05068881  0.50152477  0.85767605     1.03800
Cr437      Cr  0.12661211  0.54224245  0.86375851     1.93700
Cr438      Cr  0.18418176  0.48838521  0.81271518     1.93200
Cr439      Cr  0.12334353  0.44896342  0.87317759     1.39100
O440        O  0.14490190  0.49297164  0.84979286    -1.21800
O441        O  0.52305993  0.06794833  0.85419269    -0.84100
O442        O  0.56452377  0.12938445  0.81908945    -0.81100
C443        C  0.55077149  0.12664042  0.78297672     0.99400
O444        O  0.51651090  0.14166678  0.77404825    -0.81200
O445        O  0.43473904  0.16028733  0.78133787    -0.83800
C446        C  0.41794786  0.12524659  0.78137752     1.03900
O447        O  0.42268502  0.10197388  0.81146087    -0.76600
O448        O  0.45934051  0.06364550  0.87544519    -0.76800
C449        C  0.49280240  0.04711807  0.86473669     1.03900
O450        O  0.50948763  0.11347755  0.92730538    -0.84100
O451        O  0.54551166  0.17848239  0.89056326    -0.81100
C452        C  0.55417560  0.20647267  0.86593580     0.99400
O453        O  0.53859059  0.20653375  0.83042137    -0.81200
O454        O  0.45659749  0.21762247  0.84611628    -0.83800
C455        C  0.42254358  0.21056608  0.86288746     1.03900
O456        O  0.40727564  0.17469246  0.86230605    -0.76600
O457        O  0.44688485  0.13669371  0.92346018    -0.76700
C458        C  0.47691959  0.12561102  0.94423943     1.03800
Cr459      Cr  0.53185783  0.12394041  0.87112139     1.93700
Cr460      Cr  0.48640472  0.17882917  0.81077730     1.93200
Cr461      Cr  0.43766909  0.12078126  0.86654746     1.39100
O462        O  0.48516205  0.14099466  0.84959179    -1.21800
O463        O  0.51265530  0.84557326  0.92526820    -0.84100
O464        O  0.56366007  0.80830052  0.86995525    -0.81100
C465        C  0.55146028  0.77149639  0.86735904     0.99400
O466        O  0.51839490  0.76282455  0.84963715    -0.81200
O467        O  0.43755016  0.76993371  0.83031078    -0.83800
C468        C  0.42017047  0.77264461  0.86508728     1.03900
O469        O  0.42301185  0.80476896  0.88576567    -0.76600
O470        O  0.45257226  0.87389715  0.91888243    -0.76800
C471        C  0.48050088  0.85954467  0.94105208     1.03900
O472        O  0.50598410  0.91717449  0.87375678    -0.84100
O473        O  0.55228507  0.87732809  0.81614601    -0.81100
C474        C  0.55917763  0.85350467  0.78663424     0.99400
O475        O  0.54214922  0.81862153  0.78503806    -0.81200
O476        O  0.46163778  0.83251283  0.76956881    -0.83800
C477        C  0.42669653  0.84751462  0.77463451     1.03900
O478        O  0.40947128  0.84482410  0.80906303    -0.76600
O479        O  0.44820708  0.91104655  0.84008036    -0.76700
C480        C  0.47540266  0.93296271  0.85573741     1.03800
Cr481      Cr  0.53040608  0.86049490  0.86958288     1.93700
Cr482      Cr  0.48949829  0.79876975  0.81113894     1.93200
Cr483      Cr  0.43712213  0.85707947  0.86217736     1.39100
O484        O  0.48601451  0.83871848  0.84757813    -1.21800
O485        O  0.92081100  0.51174036  0.85194582    -0.84100
O486        O  0.86635146  0.56322258  0.81609315    -0.81100
C487        C  0.86295893  0.55118836  0.77938478     0.99400
O488        O  0.84337676  0.51901483  0.77099979    -0.81200
O489        O  0.82351684  0.43796013  0.77921871    -0.83800
C490        C  0.85733860  0.41909367  0.78167575     1.03900
O491        O  0.87919956  0.42224445  0.81307869    -0.76600
O492        O  0.91414547  0.45269041  0.88231769    -0.76800
C493        C  0.93650032  0.48031350  0.86733628     1.03900
O494        O  0.87048124  0.50721015  0.92500289    -0.84100
O495        O  0.81366896  0.55344936  0.88675104    -0.81100
C496        C  0.78303599  0.55939869  0.86441466     0.99400
O497        O  0.78036176  0.54239837  0.82953880    -0.81200
O498        O  0.76449268  0.46137967  0.84272010    -0.83800
C499        C  0.76932376  0.42588537  0.85662402     1.03900
O500        O  0.80397670  0.40932715  0.85510742    -0.76600
O501        O  0.83635466  0.44922781  0.92072461    -0.76700
C502        C  0.85147978  0.47763824  0.94163844     1.03800
Cr503      Cr  0.86604520  0.53055578  0.86828463     1.93700
Cr504      Cr  0.80560295  0.48988569  0.80844277     1.93200
Cr505      Cr  0.85720343  0.43729250  0.86616808     1.39100
O506        O  0.84277908  0.48618897  0.84757210    -1.21800
O507        O  0.85261829  0.91967751  0.52839090    -0.84100
O508        O  0.81611208  0.86291313  0.57821329    -0.81100
C509        C  0.77939333  0.86088849  0.56604405     0.99400
O510        O  0.77053578  0.84299280  0.53305530    -0.81200
O511        O  0.77655201  0.82604708  0.45127643    -0.83800
C512        C  0.77878847  0.86040719  0.43329458     1.03900
O513        O  0.81033667  0.88226036  0.43648050    -0.76600
O514        O  0.88017254  0.91514345  0.46761151    -0.76800
C515        C  0.86477899  0.93638052  0.49580379     1.03900
O516        O  0.92449875  0.86807157  0.51981411    -0.84100
O517        O  0.88544224  0.80864593  0.56451176    -0.81100
C518        C  0.86265267  0.77763584  0.56816494     0.99400
O519        O  0.82725082  0.77735295  0.55239685    -0.81200
O520        O  0.83897724  0.76567032  0.47111876    -0.83800
C521        C  0.85246460  0.77200362  0.43568358     1.03900
O522        O  0.85132860  0.80730870  0.42051508    -0.76600
O523        O  0.91785648  0.83674163  0.46063087    -0.76700
C524        C  0.93995431  0.84968002  0.48920758     1.03800
Cr525      Cr  0.86797665  0.86324262  0.54435104     1.93700
Cr526      Cr  0.80616312  0.80578784  0.50183000     1.93200
Cr527      Cr  0.86351622  0.85907165  0.45033998     1.39100
O528        O  0.84577781  0.84267140  0.49912661    -1.21800
C529        C  0.46911406  0.97719658  0.85511870    -0.15200
C530        C  0.49851366  0.00298617  0.86612641    -0.30300
H531        H  0.43979349  0.98886617  0.84492129     0.13900
H532        H  0.52873230  0.99157580  0.87361501     0.14400
C533        C  0.00620292  0.50401793  0.85338789    -0.15200
C534        C  0.98103415  0.47602075  0.86960561    -0.30300
H535        H  0.99384199  0.53015232  0.83716004     0.13900
H536        H  0.99330307  0.44970545  0.88558981     0.14400
C537        C  0.01056861  0.85941145  0.51264041    -0.15200
C538        C  0.98431354  0.84464051  0.48502779    -0.30300
H539        H  0.99927594  0.87479019  0.53986869     0.13900
H540        H  0.99567167  0.82931412  0.45778423     0.14400
C541        C  0.86137640  0.98083008  0.48962838    -0.15200
C542        C  0.85564926  0.00673092  0.52075452    -0.30300
H543        H  0.86515172  0.99269192  0.45880728     0.13900
H544        H  0.85494292  0.99524984  0.55192469     0.14400
C545        C  0.50720973  0.85968181  0.01086527    -0.15200
C546        C  0.47513423  0.85986613  0.98558532    -0.30300
H547        H  0.53808081  0.86062747  0.99858088     0.13900
H548        H  0.44431633  0.86206162  0.99781249     0.14400
C549        C  0.84715534  0.50785989  0.00937168    -0.15200
C550        C  0.84919443  0.47454412  0.98600893    -0.30300
H551        H  0.84449844  0.53793800  0.99555542     0.13900
H552        H  0.84839655  0.44429541  0.99972064     0.14400
C553        C  0.48245535  0.00637101  0.13594516    -0.15200
C554        C  0.51408956  0.98131288  0.13902749    -0.30300
H555        H  0.45159773  0.99401184  0.13452050     0.13900
H556        H  0.54466748  0.99356612  0.14364648     0.14400
C557        C  0.50554148  0.12874846  0.01312649    -0.15200
C558        C  0.47290163  0.12580009  0.98886429    -0.30300
H559        H  0.53582839  0.13229586  0.99986295     0.13900
H560        H  0.44237490  0.12515433  0.00200350     0.14400
C561        C  0.97322355  0.13925027  0.51794819    -0.15200
C562        C  0.99677086  0.11943174  0.49096331    -0.30300
H563        H  0.98701773  0.15594279  0.54319733     0.13900
H564        H  0.98294614  0.10285629  0.46566182     0.14400
C565        C  0.12919404  0.99893119  0.48135189    -0.15200
C566        C  0.13873545  0.97521520  0.51300500    -0.30300
H567        H  0.12525215  0.98574825  0.45106427     0.13900
H568        H  0.14573776  0.98875129  0.54257853     0.14400
C569        C  0.97493608  0.50563408  0.13279519    -0.15200
C570        C  0.99985894  0.47344648  0.13431641    -0.30300
H571        H  0.98744862  0.53638386  0.13058715     0.13900
H572        H  0.98746791  0.44258114  0.13329573     0.14400
C573        C  0.12096489  0.50314755  0.98825985    -0.15200
C574        C  0.13437807  0.47352904  0.01316105    -0.30300
H575        H  0.10621231  0.53009663  0.00082651     0.13900
H576        H  0.14933052  0.44673474  0.00047796     0.14400
C577        C  0.90817933  0.74084375  0.61726729    -0.15200
C578        C  0.87796274  0.74012810  0.58915268    -0.30300
H579        H  0.91917711  0.77019688  0.62838025     0.13900
H580        H  0.86507119  0.71090172  0.57990198     0.14400
C581        C  0.08502094  0.74387478  0.61767061    -0.15200
C582        C  0.11765671  0.73781952  0.59315307    -0.30300
H583        H  0.07129189  0.77398775  0.61992614     0.13900
H584        H  0.13162357  0.70785362  0.59064724     0.14400
C585        C  0.09332674  0.60590849  0.74463073    -0.15200
C586        C  0.11714347  0.57263587  0.74045183    -0.30300
H587        H  0.09103482  0.62120836  0.77406153     0.13900
H588        H  0.11913676  0.55734626  0.71098356     0.14400
C589        C  0.91166435  0.60266684  0.75119762    -0.15200
C590        C  0.88213207  0.57441658  0.74535066    -0.30300
H591        H  0.92121065  0.61012284  0.78214729     0.13900
H592        H  0.87404867  0.56552441  0.71435649     0.14400
C593        C  0.97631373  0.62072431  0.48346880    -0.15200
C594        C  0.00497384  0.63725684  0.50769586    -0.30300
H595        H  0.95019958  0.60487371  0.49664578     0.13900
H596        H  0.03093510  0.65327097  0.49438384     0.14400
C597        C  0.07754674  0.74173970  0.38360150    -0.15200
C598        C  0.10717096  0.73460974  0.41142353    -0.30300
H599        H  0.06927394  0.77311330  0.37675351     0.13900
H600        H  0.11416517  0.70331749  0.41987823     0.14400
C601        C  0.89449511  0.74379939  0.37961971    -0.15200
C602        C  0.87097445  0.73814929  0.41303186    -0.30300
H603        H  0.89718315  0.77373238  0.36551373     0.13900
H604        H  0.86860867  0.70806740  0.42691982     0.14400
C605        C  0.86670355  0.59166808  0.24672873    -0.15200
C606        C  0.89921209  0.61657573  0.24052565    -0.30300
H607        H  0.85260427  0.58938112  0.27673731     0.13900
H608        H  0.91311324  0.61849765  0.21037619     0.14400
C609        C  0.07902444  0.60900619  0.24819749    -0.15200
C610        C  0.10017766  0.57396545  0.25247386    -0.30300
H611        H  0.07807871  0.62445189  0.21884745     0.13900
H612        H  0.10147706  0.55955083  0.28236755     0.14400
C613        C  0.99217663  0.47944671  0.36736446    -0.15200
C614        C  0.96746251  0.50501868  0.34778976    -0.30300
H615        H  0.01776786  0.49131898  0.38496784     0.13900
H616        H  0.94171014  0.49330476  0.33033169     0.14400
C617        C  0.07659640  0.37005235  0.25514948    -0.15200
C618        C  0.10542644  0.39950320  0.25763204    -0.30300
H619        H  0.06853104  0.35760903  0.22539161     0.13900
H620        H  0.11544326  0.41050893  0.28734275     0.14400
C621        C  0.87065338  0.40524700  0.24944365    -0.15200
C622        C  0.89927673  0.37616870  0.24404399    -0.30300
H623        H  0.86188490  0.41389889  0.28033407     0.13900
H624        H  0.90993253  0.36897912  0.21338197     0.14400
C625        C  0.88948415  0.24231654  0.38518745    -0.15200
C626        C  0.86138417  0.24438442  0.41540259    -0.30300
H627        H  0.89933122  0.21253196  0.37433604     0.13900
H628        H  0.84967543  0.27402284  0.42464814     0.14400
C629        C  0.06422552  0.23411266  0.38517490    -0.15200
C630        C  0.09904133  0.23841978  0.40677941    -0.30300
H631        H  0.04943688  0.20439091  0.38292183     0.13900
H632        H  0.11428415  0.26790706  0.40884340     0.14400
C633        C  0.98493138  0.47529831  0.64396923    -0.15200
C634        C  0.01006765  0.50108040  0.62465756    -0.30300
H635        H  0.95877248  0.48733556  0.66054294     0.13900
H636        H  0.03609387  0.48926262  0.60775287     0.14400
C637        C  0.90401927  0.36780598  0.75431126    -0.15200
C638        C  0.87215064  0.39296966  0.74793845    -0.30300
H639        H  0.91651083  0.36464207  0.78492062     0.13900
H640        H  0.85902770  0.39635596  0.71765748     0.14400
C641        C  0.08165290  0.36752912  0.75896403    -0.15200
C642        C  0.11152276  0.39579725  0.75513797    -0.30300
H643        H  0.07163525  0.35769994  0.78908703     0.13900
H644        H  0.12309300  0.40343232  0.72491229     0.14400
C645        C  0.00461492  0.34570796  0.51628020    -0.15200
C646        C  0.97463983  0.35759562  0.49150649    -0.30300
H647        H  0.03256231  0.33309889  0.50352882     0.13900
H648        H  0.94686356  0.37060482  0.50420955     0.14400
C649        C  0.08015426  0.23220499  0.62154163    -0.15200
C650        C  0.10557734  0.23826922  0.58952473    -0.30300
H651        H  0.07146653  0.20117386  0.62966561     0.13900
H652        H  0.11212689  0.26937344  0.57983542     0.14400
C653        C  0.89449043  0.24167242  0.62274847    -0.15200
C654        C  0.86952179  0.24926358  0.59092672    -0.30300
H655        H  0.89410824  0.21214112  0.63789350     0.13900
H656        H  0.86989859  0.27903983  0.57623272     0.14400
C657        C  0.58157196  0.11250025  0.25673961    -0.15200
C658        C  0.60248475  0.07702833  0.25391023    -0.30300
H659        H  0.57923168  0.12838498  0.28582753     0.13900
H660        H  0.60502301  0.06230318  0.22419288     0.14400
C661        C  0.61360873  0.89549833  0.25229614    -0.15200
C662        C  0.58085831  0.87064046  0.25643301    -0.30300
H663        H  0.62842119  0.89926882  0.22278324     0.13900
H664        H  0.56631973  0.86733269  0.28617004     0.14400
C665        C  0.74804503  0.90898986  0.38500192    -0.15200
C666        C  0.74437104  0.87508471  0.40811393    -0.30300
H667        H  0.77719215  0.92495753  0.38351129     0.13900
H668        H  0.71534872  0.85896024  0.40991849     0.14400
C669        C  0.73282063  0.08537607  0.39090158    -0.15200
C670        C  0.72935489  0.10552394  0.42675813    -0.30300
H671        H  0.76160616  0.08583152  0.37432710     0.13900
H672        H  0.70012128  0.10554220  0.44257957     0.14400
C673        C  0.61119849  0.90010849  0.75848003    -0.15200
C674        C  0.58679219  0.86726066  0.75320211    -0.30300
H675        H  0.61284180  0.91419670  0.78857321     0.13900
H676        H  0.58493857  0.85231487  0.72357746     0.14400
C677        C  0.60709142  0.08199082  0.75730264    -0.15200
C678        C  0.57359896  0.10500511  0.75067968    -0.30300
H679        H  0.62165766  0.08163013  0.78710481     0.13900
H680        H  0.55988762  0.10534111  0.72043021     0.14400
C681        C  0.62807527  0.00254664  0.51894926    -0.15200
C682        C  0.62705681  0.97069326  0.49356696    -0.30300
H683        H  0.62921220  0.03343070  0.50675405     0.13900
H684        H  0.62913254  0.93980981  0.50558205     0.14400
C685        C  0.74256353  0.08125467  0.63014415    -0.15200
C686        C  0.73633034  0.11363738  0.60565619    -0.30300
H687        H  0.77319355  0.06892915  0.63326075     0.13900
H688        H  0.70604606  0.12664448  0.60233790     0.14400
C689        C  0.74869871  0.90189340  0.62399798    -0.15200
C690        C  0.74537077  0.88002880  0.58902139    -0.30300
H691        H  0.77780907  0.90421938  0.63970178     0.13900
H692        H  0.71560317  0.87755789  0.57452737     0.14400
C693        C  0.50030226  0.97498995  0.36743780    -0.15200
C694        C  0.47504739  0.00700781  0.36550247    -0.30300
H695        H  0.48799994  0.94411274  0.36882975     0.13900
H696        H  0.48722878  0.03791844  0.36727790     0.14400
C697        C  0.37724100  0.91167109  0.24149566    -0.15200
C698        C  0.39961851  0.87717877  0.24549852    -0.30300
H699        H  0.37612763  0.92659640  0.21185807     0.13900
H700        H  0.40045618  0.86148483  0.27471960     0.14400
C701        C  0.36927610  0.09067311  0.24617548    -0.15200
C702        C  0.40312164  0.11357290  0.25220414    -0.30300
H703        H  0.35546773  0.08843380  0.21607978     0.13900
H704        H  0.41631716  0.11567191  0.28262279     0.14400
C705        C  0.23723614  0.11141863  0.40276985    -0.15200
C706        C  0.23020160  0.08227892  0.37425365    -0.30300
H707        H  0.26846386  0.11913971  0.41105230     0.13900
H708        H  0.19913221  0.07212733  0.36827470     0.14400
C709        C  0.24420230  0.87022284  0.40344698    -0.15200
C710        C  0.23977439  0.90031376  0.37554150    -0.30300
H711        H  0.27464224  0.85978851  0.41134746     0.13900
H712        H  0.20934097  0.90902779  0.36575369     0.14400
C713        C  0.48045302  0.00650013  0.63418579    -0.10400
C714        C  0.50532104  0.97453777  0.63857891    -0.30300
H715        H  0.49279438  0.03739379  0.63391018     0.13900
H716        H  0.49266516  0.94391859  0.64167619     0.14400
C717        C  0.36968094  0.07656546  0.74930927    -0.15200
C718        C  0.39295787  0.11068303  0.74603362    -0.30300
H719        H  0.36741006  0.06164771  0.77890656     0.13900
H720        H  0.39547396  0.12645692  0.71694207     0.14400
C721        C  0.37453889  0.89402810  0.74564090    -0.15200
C722        C  0.40752223  0.86994109  0.74069676    -0.30300
H723        H  0.35801601  0.89429664  0.77448296     0.13900
H724        H  0.42350141  0.86969087  0.71152220     0.14400
C725        C  0.34625933  0.00907506  0.48371110    -0.15200
C726        C  0.35617904  0.97786050  0.50772608    -0.30300
H727        H  0.33786713  0.03833384  0.49705845     0.13900
H728        H  0.36185625  0.94783643  0.49464619     0.14400
C729        C  0.24735655  0.89128521  0.61470162    -0.15200
C730        C  0.25548546  0.86450436  0.58433808    -0.30300
H731        H  0.21581214  0.89725955  0.62316094     0.13900
H732        H  0.28661674  0.86066086  0.57345799     0.14400
C733        C  0.23642940  0.10284012  0.58483675    -0.15200
C734        C  0.23380797  0.07288710  0.61313873    -0.30300
H735        H  0.26625371  0.11471005  0.57615654     0.13900
H736        H  0.20407845  0.06263107  0.62390724     0.14400
C737        C  0.23750899  0.37575722  0.91948097    -0.15200
C738        C  0.24465279  0.40343892  0.88982367    -0.30300
H739        H  0.20627283  0.36911818  0.92870910     0.13900
H740        H  0.27593319  0.41153544  0.88200208     0.14400
C741        C  0.24466186  0.40157648  0.12422730    -0.15200
C742        C  0.23976984  0.36765124  0.10113799    -0.30300
H743        H  0.27431144  0.41657026  0.12572287     0.13900
H744        H  0.21024632  0.35249026  0.09928951     0.14400
C745        C  0.37138327  0.23204858  0.08803848    -0.15200
C746        C  0.39489582  0.23909338  0.12119314    -0.30300
H747        H  0.37245732  0.20264689  0.07254836     0.13900
H748        H  0.39379680  0.26821547  0.13716179     0.14400
C749        C  0.36829981  0.24201682  0.90762806    -0.15200
C750        C  0.40214222  0.24525326  0.88416056    -0.30300
H751        H  0.35181408  0.21317038  0.90888453     0.13900
H752        H  0.41803092  0.27446556  0.88306682     0.14400
C753        C  0.35517144  0.47440637  0.02461878    -0.15200
C754        C  0.35281630  0.50175553  0.99465799    -0.30300
H755        H  0.35869606  0.48461877  0.05608218     0.13900
H756        H  0.35303780  0.49160606  0.96297747     0.14400
C757        C  0.23139920  0.60357829  0.08358104    -0.15200
C758        C  0.23366147  0.58198735  0.11867811    -0.30300
H759        H  0.20280268  0.60417713  0.06677710     0.13900
H760        H  0.26199545  0.58172755  0.13590926     0.14400
C761        C  0.24564316  0.60857347  0.90983250    -0.15200
C762        C  0.24891503  0.57882527  0.88158231    -0.30300
H763        H  0.21576917  0.62089438  0.91735797     0.13900
H764        H  0.27882472  0.56804040  0.87211081     0.14400
C765        C  0.37565753  0.74385009  0.91809799    -0.15200
C766        C  0.39630475  0.73853503  0.88260405    -0.30300
H767        H  0.37445195  0.77383843  0.93238171     0.13900
H768        H  0.39750351  0.70877438  0.86789153     0.14400
C769        C  0.37198265  0.74088083  0.09584078    -0.15200
C770        C  0.40854497  0.73947982  0.11476450    -0.30300
H771        H  0.35566103  0.76963838  0.09389881     0.13900
H772        H  0.42418607  0.71029610  0.11650562     0.14400
C773        C  0.47805201  0.34437415  0.01834607    -0.15200
C774        C  0.50097486  0.34595373  0.98453536    -0.30300
H775        H  0.49231588  0.34198091  0.04824135     0.13900
H776        H  0.48666250  0.34499897  0.95456411     0.14400
C777        C  0.60659428  0.23319138  0.91250281    -0.15200
C778        C  0.58305767  0.23863834  0.87907311    -0.30300
H779        H  0.60620076  0.20399479  0.92831381     0.13900
H780        H  0.58353563  0.26744937  0.86261909     0.14400
C781        C  0.61140808  0.24552784  0.09365062    -0.15200
C782        C  0.57760838  0.24905503  0.11714885    -0.30300
H783        H  0.62774093  0.21671895  0.09264834     0.13900
H784        H  0.56182696  0.27820887  0.11788696     0.14400
C785        C  0.74363932  0.38025007  0.07766775    -0.15200
C786        C  0.74009529  0.40090170  0.11333896    -0.30300
H787        H  0.77305928  0.37959701  0.06222706     0.13900
H788        H  0.71111397  0.40120834  0.12955558     0.14400
C789        C  0.73860088  0.37036068  0.89840442    -0.15200
C790        C  0.73452136  0.40470468  0.87594298    -0.30300
H791        H  0.76779622  0.35478258  0.89989957     0.13900
H792        H  0.70521521  0.42014417  0.87479597     0.14400
C793        C  0.62567446  0.47710386  0.97696180    -0.15200
C794        C  0.63118004  0.50425456  0.00683923    -0.30300
H795        H  0.62043803  0.48756140  0.94586927     0.13900
H796        H  0.63273302  0.49414267  0.03844725     0.14400
C797        C  0.74927918  0.58560515  0.87976114    -0.15200
C798        C  0.75226479  0.60690957  0.91515426    -0.30300
H799        H  0.72067150  0.58535479  0.86299353     0.13900
H800        H  0.78113392  0.60746600  0.93148653     0.14400
C801        C  0.73526704  0.61232188  0.09562923    -0.15200
C802        C  0.73023868  0.57866891  0.11879676    -0.30300
H803        H  0.76475129  0.62764169  0.09428752     0.13900
H804        H  0.70067420  0.56346187  0.11987990     0.14400
C805        C  0.47908201  0.63294328  0.01571166    -0.15200
C806        C  0.50523185  0.63355398  0.98442543    -0.30300
H807        H  0.49044302  0.63087417  0.04686499     0.13900
H808        H  0.49399629  0.63164445  0.95320940     0.14400
C809        C  0.60944812  0.74739184  0.08218995    -0.15200
C810        C  0.58722463  0.74230009  0.11678986    -0.30300
H811        H  0.61183144  0.77738742  0.06814033     0.13900
H812        H  0.58497146  0.71258380  0.13139317     0.14400
C813        C  0.61134797  0.74044768  0.90409995    -0.15200
C814        C  0.57478267  0.73722189  0.88530601    -0.30300
H815        H  0.62702936  0.76973397  0.90539041     0.13900
H816        H  0.55972972  0.70756856  0.88419506     0.14400
loop_ 
_geom_bond_atom_site_label_1 
_geom_bond_atom_site_label_2 
_geom_bond_distance 
_geom_bond_site_symmetry_2 
_ccdc_geom_bond_type 
O1          Cr19   1.990       .  S
O1            C9   1.261       .  A
O2          Cr19   1.966       .  S
O2            C3   1.260       .  A
C3            O4   1.271       .  A
C3          C813   1.490       .  S
O4          Cr20   2.027       .  S
O5          Cr20   1.986   1_554  S
O5            C6   1.260       .  A
C6            O7   1.255       .  A
C6          C809   1.469       .  S
O7          Cr21   1.984       .  S
O8          Cr21   1.976       .  S
O8            C9   1.262   1_554  A
C9          C806   1.461       .  S
O10         Cr19   1.985       .  S
O10          C18   1.263       .  A
O11         Cr19   2.001       .  S
O11          C12   1.261       .  A
C12          O13   1.261       .  A
C12         C798   1.485       .  S
O13         Cr20   1.993       .  S
O14         Cr20   2.023   1_554  S
O14          C15   1.271       .  A
C15          O16   1.260       .  A
C15         C801   1.476       .  S
O16         Cr21   1.958       .  S
O17         Cr21   1.980       .  S
O17          C18   1.258   1_554  A
C18         C794   1.461   1_556  S
Cr19         O22   1.779       .  S
Cr20         O22   1.772       .  S
Cr21         O22   1.778   1_554  S
O23         Cr41   2.014       .  S
O23          C31   1.271   1_554  A
O24         Cr41   1.978       .  S
O24          C25   1.261       .  A
C25          O26   1.271       .  A
C25         C781   1.494       .  S
O26         Cr42   2.030   1_554  S
O27         Cr42   1.985       .  S
O27          C28   1.259       .  A
C28          O29   1.258       .  A
C28         C777   1.471       .  S
O29         Cr43   1.991       .  S
O30         Cr43   1.956       .  S
O30          C31   1.256       .  A
C31         C774   1.462       .  S
O32         Cr41   1.984       .  S
O32          C40   1.261   1_554  A
O33         Cr41   2.016       .  S
O33          C34   1.266       .  A
C34          O35   1.261       .  A
C34         C785   1.483       .  S
O35         Cr42   1.982   1_554  S
O36         Cr42   2.036       .  S
O36          C37   1.273       .  A
C37          O38   1.256       .  A
C37         C789   1.479       .  S
O38         Cr43   1.949       .  S
O39         Cr43   1.983       .  S
O39          C40   1.256       .  A
C40         C793   1.466       .  S
Cr41         O44   1.774   1_554  S
Cr42         O44   1.770       .  S
Cr43         O44   1.780       .  S
O45         Cr63   1.977       .  S
O45          C53   1.256   1_556  A
O46         Cr63   1.970       .  S
O46          C47   1.262       .  A
C47          O48   1.269       .  A
C47         C761   1.473       .  S
O48         Cr64   2.013   1_556  S
O49         Cr64   1.988       .  S
O49          C50   1.260       .  A
C50          O51   1.263       .  A
C50         C757   1.485       .  S
O51         Cr65   2.005       .  S
O52         Cr65   1.991       .  S
O52          C53   1.264       .  A
C53         C754   1.463   1_554  S
O54         Cr63   1.977       .  S
O54          C62   1.263   1_556  A
O55         Cr63   1.985       .  S
O55          C56   1.256       .  A
C56          O57   1.259       .  A
C56         C765   1.468       .  S
O57         Cr64   1.984   1_556  S
O58         Cr64   2.022       .  S
O58          C59   1.268       .  A
C59          O60   1.262       .  A
C59         C769   1.495       .  S
O60         Cr65   1.981       .  S
O61         Cr65   1.990       .  S
O61          C62   1.262       .  A
C62         C805   1.462       .  S
Cr63         O66   1.781   1_556  S
Cr64         O66   1.772       .  S
Cr65         O66   1.779       .  S
O67         Cr85   1.980       .  S
O67          C75   1.255       .  A
O68         Cr85   1.945       .  S
O68          C69   1.256       .  A
C69          O70   1.273       .  A
C69         C742   1.476       .  S
O70         Cr86   2.036       .  S
O71         Cr86   1.983   1_556  S
O71          C72   1.261       .  A
C72          O73   1.266       .  A
C72         C737   1.482       .  S
O73         Cr87   2.008       .  S
O74         Cr87   1.988       .  S
O74          C75   1.262   1_556  A
C75         C753   1.467       .  S
O76         Cr85   1.962       .  S
O76          C84   1.258       .  A
O77         Cr85   1.982       .  S
O77          C78   1.255       .  A
C78          O79   1.258       .  A
C78         C745   1.465       .  S
O79         Cr86   1.982       .  S
O80         Cr86   2.026   1_556  S
O80          C81   1.270       .  A
C81          O82   1.263       .  A
C81         C749   1.495       .  S
O82         Cr87   1.984       .  S
O83         Cr87   2.010       .  S
O83          C84   1.270   1_556  A
C84         C773   1.464       .  S
Cr85         O88   1.780       .  S
Cr86         O88   1.774       .  S
Cr87         O88   1.770   1_556  S
O89        Cr107   2.013       .  S
O89          C97   1.269   1_545  A
O90        Cr107   1.965       .  S
O90          C91   1.255       .  A
C91          O92   1.268       .  A
C91         C734   1.484       .  S
O92        Cr108   2.027   1_545  S
O93        Cr108   1.977       .  S
O93          C94   1.261       .  A
C94          O95   1.266       .  A
C94         C729   1.476       .  S
O95        Cr109   2.010       .  S
O96        Cr109   1.942       .  S
O96          C97   1.250       .  A
C97         C726   1.458       .  S
O98        Cr107   1.958       .  S
O98         C106   1.252       .  A
O99        Cr107   2.023       .  S
O99         C100   1.269       .  A
C100        O101   1.262       .  A
C100        C717   1.486       .  S
O101       Cr108   1.977   1_545  S
O102       Cr108   2.028       .  S
O102        C103   1.268       .  A
C103        O104   1.255       .  A
C103        C721   1.479       .  S
O104       Cr109   1.956       .  S
O105       Cr109   2.003       .  S
O105        C106   1.265   1_565  A
C106        C713   1.465       .  S
Cr107       O110   1.784   1_545  S
Cr108       O110   1.775       .  S
Cr109       O110   1.781       .  S
O111       Cr129   2.015       .  S
O111        C119   1.271   1_565  A
O112       Cr129   1.972       .  S
O112        C113   1.259       .  A
C113        O114   1.271       .  A
C113        C710   1.486       .  S
O114       Cr130   2.026       .  S
O115       Cr130   1.997   1_545  S
O115        C116   1.261       .  A
C116        O117   1.259       .  A
C116        C706   1.482       .  S
O117       Cr131   1.994       .  S
O118       Cr131   1.949       .  S
O118        C119   1.253       .  A
C119        C725   1.462       .  S
O120       Cr129   1.976       .  S
O120        C128   1.258   1_565  A
O121       Cr129   2.018       .  S
O121        C122   1.266       .  A
C122        O123   1.263       .  A
C122        C697   1.491       .  S
O123       Cr130   1.990       .  S
O124       Cr130   2.037   1_545  S
O124        C125   1.273       .  A
C125        O126   1.256       .  A
C125        C701   1.479       .  S
O126       Cr131   1.941       .  S
O127       Cr131   1.996       .  S
O127        C128   1.260       .  A
C128        C694   1.467       .  S
Cr129       O132   1.780       .  S
Cr130       O132   1.774       .  S
Cr131       O132   1.778   1_545  S
O133       Cr151   2.020       .  S
O133        C141   1.270       .  A
O134       Cr151   1.957       .  S
O134        C135   1.257       .  A
C135        O136   1.272       .  A
C135        C689   1.492       .  S
O136       Cr152   2.040       .  S
O137       Cr152   1.962   1_545  S
O137        C138   1.257       .  A
C138        O139   1.266       .  A
C138        C685   1.468       .  S
O139       Cr153   2.012       .  S
O140       Cr153   1.950       .  S
O140        C141   1.252   1_545  A
C141        C681   1.465   1_565  S
O142       Cr151   1.957       .  S
O142        C150   1.253       .  A
O143       Cr151   2.023       .  S
O143        C144   1.269       .  A
C144        O145   1.258       .  A
C144        C673   1.479       .  S
O145       Cr152   1.965       .  S
O146       Cr152   2.039   1_545  S
O146        C147   1.272       .  A
C147        O148   1.255       .  A
C147        C677   1.482       .  S
O148       Cr153   1.947       .  S
O149       Cr153   2.011       .  S
O149        C150   1.267   1_545  A
C150        C714   1.465       .  S
Cr151       O154   1.773       .  S
Cr152       O154   1.774       .  S
Cr153       O154   1.773   1_545  S
O155       Cr173   2.001       .  S
O155        C163   1.262       .  A
O156       Cr173   1.942       .  S
O156        C157   1.254       .  A
C157        O158   1.271       .  A
C157        C661   1.479       .  S
O158       Cr174   2.035       .  S
O159       Cr174   1.973   1_545  S
O159        C160   1.260       .  A
C160        O161   1.269       .  A
C160        C658   1.484       .  S
O161       Cr175   2.030       .  S
O162       Cr175   1.971       .  S
O162        C163   1.259   1_545  A
C163        C693   1.469       .  S
O164       Cr173   1.946       .  S
O164        C172   1.252       .  A
O165       Cr173   2.004       .  S
O165        C166   1.263       .  A
C166        O167   1.258       .  A
C166        C665   1.474       .  S
O167       Cr174   1.975       .  S
O168       Cr174   2.025   1_545  S
O168        C169   1.269       .  A
C169        O170   1.259       .  A
C169        C669   1.486       .  S
O170       Cr175   1.969       .  S
O171       Cr175   2.022       .  S
O171        C172   1.271   1_545  A
C172        C682   1.463       .  S
Cr173       O176   1.778       .  S
Cr174       O176   1.772       .  S
Cr175       O176   1.775   1_545  S
O177       Cr195   2.016       .  S
O177        C185   1.268   1_655  A
O178       Cr195   1.943       .  S
O178        C179   1.255       .  A
C179        O180   1.269       .  A
C179        C653   1.470       .  S
O180       Cr196   2.028       .  S
O181       Cr196   1.982   1_455  S
O181        C182   1.261       .  A
C182        O183   1.271       .  A
C182        C649   1.490       .  S
O183       Cr197   2.023       .  S
O184       Cr197   1.950       .  S
O184        C185   1.250       .  A
C185        C645   1.466       .  S
O186       Cr195   1.948       .  S
O186        C194   1.250       .  A
O187       Cr195   2.006       .  S
O187        C188   1.264       .  A
C188        O189   1.259       .  A
C188        C637   1.467       .  S
O189       Cr196   1.969       .  S
O190       Cr196   2.028   1_455  S
O190        C191   1.271       .  A
C191        O192   1.257       .  A
C191        C641   1.479       .  S
O192       Cr197   1.958       .  S
O193       Cr197   2.039       .  S
O193        C194   1.273   1_455  A
C194        C633   1.472       .  S
Cr195       O198   1.772       .  S
Cr196       O198   1.771       .  S
Cr197       O198   1.773   1_455  S
O199       Cr217   1.981       .  S
O199        C207   1.265   1_455  A
O200       Cr217   1.988       .  S
O200        C201   1.257       .  A
C201        O202   1.257       .  A
C201        C629   1.468       .  S
O202       Cr218   1.979   1_455  S
O203       Cr218   2.021       .  S
O203        C204   1.271       .  A
C204        O205   1.263       .  A
C204        C625   1.491       .  S
O205       Cr219   1.986       .  S
O206       Cr219   1.992       .  S
O206        C207   1.261       .  A
C207        C646   1.466       .  S
O208       Cr217   1.981       .  S
O208        C216   1.257   1_455  A
O209       Cr217   1.977       .  S
O209        C210   1.262       .  A
C210        O211   1.271       .  A
C210        C617   1.481       .  S
O211       Cr218   2.019   1_455  S
O212       Cr218   1.990       .  S
O212        C213   1.259       .  A
C213        O214   1.262       .  A
C213        C622   1.486       .  S
O214       Cr219   2.000       .  S
O215       Cr219   1.985       .  S
O215        C216   1.264       .  A
C216        C613   1.461       .  S
Cr217       O220   1.782   1_455  S
Cr218       O220   1.772       .  S
Cr219       O220   1.778       .  S
O221       Cr239   2.006       .  S
O221        C229   1.261       .  A
O222       Cr239   1.939       .  S
O222        C223   1.257       .  A
C223        O224   1.273       .  A
C223        C601   1.472       .  S
O224       Cr240   2.033       .  S
O225       Cr240   1.988   1_455  S
O225        C226   1.262       .  A
C226        O227   1.267       .  A
C226        C597   1.490       .  S
O227       Cr241   2.017       .  S
O228       Cr241   1.967       .  S
O228        C229   1.257   1_455  A
C229        C593   1.468       .  S
O230       Cr239   1.952       .  S
O230        C238   1.252       .  A
O231       Cr239   1.991       .  S
O231        C232   1.258       .  A
C232        O233   1.259       .  A
C232        C606   1.471       .  S
O233       Cr240   1.985       .  S
O234       Cr240   2.029   1_455  S
O234        C235   1.271       .  A
C235        O236   1.258       .  A
C235        C609   1.486       .  S
O236       Cr241   1.960       .  S
O237       Cr241   2.020       .  S
O237        C238   1.272   1_455  A
C238        C614   1.464       .  S
Cr239       O242   1.776       .  S
Cr240       O242   1.770       .  S
Cr241       O242   1.767   1_455  S
O243       Cr261   1.994       .  S
O243        C251   1.264   1_655  A
O244       Cr261   2.010       .  S
O244        C245   1.266       .  A
C245        O246   1.261       .  A
C245        C589   1.487       .  S
O246       Cr262   1.984       .  S
O247       Cr262   2.029   1_455  S
O247        C248   1.273       .  A
C248        O249   1.262       .  A
C248        C585   1.480       .  S
O249       Cr263   1.963       .  S
O250       Cr263   1.991       .  S
O250        C251   1.256       .  A
C251        C634   1.475       .  S
O252       Cr261   2.012       .  S
O252        C260   1.270   1_655  A
O253       Cr261   1.996       .  S
O253        C254   1.264       .  A
C254        O255   1.269       .  A
C254        C577   1.496       .  S
O255       Cr262   2.019       .  S
O256       Cr262   1.979   1_455  S
O256        C257   1.256       .  A
C257        O258   1.255       .  A
C257        C581   1.466       .  S
O258       Cr263   1.986       .  S
O259       Cr263   1.964       .  S
O259        C260   1.258       .  A
C260        C594   1.466       .  S
Cr261       O264   1.777       .  S
Cr262       O264   1.773       .  S
Cr263       O264   1.782   1_455  S
O265       Cr283   1.971       .  S
O265        C273   1.259       .  A
O266       Cr283   2.018       .  S
O266        C267   1.266       .  A
C267        O268   1.258       .  A
C267        C610   1.479       .  S
O268       Cr284   1.971       .  S
O269       Cr284   2.028       .  S
O269        C270   1.272       .  A
C270        O271   1.260       .  A
C270        C618   1.482       .  S
O271       Cr285   1.966       .  S
O272       Cr285   1.991       .  S
O272        C273   1.260       .  A
C273        C570   1.463   1_455  S
O274       Cr283   2.010       .  S
O274        C282   1.268       .  A
O275       Cr283   1.974       .  S
O275        C276   1.259       .  A
C276        O277   1.269       .  A
C276        C758   1.487       .  S
O277       Cr284   2.023       .  S
O278       Cr284   1.980       .  S
O278        C279   1.258       .  A
C279        O280   1.259       .  A
C279        C741   1.470       .  S
O280       Cr285   1.993       .  S
O281       Cr285   1.969       .  S
O281        C282   1.259       .  A
C282        C574   1.469       .  S
Cr283       O286   1.778       .  S
Cr284       O286   1.770       .  S
Cr285       O286   1.780       .  S
O287       Cr305   2.021       .  S
O287        C295   1.272       .  A
O288       Cr305   1.970       .  S
O288        C289   1.259       .  A
C289        O290   1.270       .  A
C289        C733   1.482       .  S
O290       Cr306   2.021       .  S
O291       Cr306   1.990       .  S
O291        C292   1.259       .  A
C292        O293   1.259       .  A
C292        C705   1.480       .  S
O293       Cr307   1.996       .  S
O294       Cr307   1.944       .  S
O294        C295   1.253       .  A
C295        C565   1.457   1_545  S
O296       Cr305   1.978       .  S
O296        C304   1.258       .  A
O297       Cr305   2.018       .  S
O297        C298   1.267       .  A
C298        O299   1.262       .  A
C298        C650   1.493       .  S
O299       Cr306   1.991       .  S
O300       Cr306   2.030       .  S
O300        C301   1.272       .  A
C301        O302   1.257       .  A
C301        C630   1.473       .  S
O302       Cr307   1.945       .  S
O303       Cr307   1.995       .  S
O303        C304   1.258       .  A
C304        C562   1.466   1_455  S
Cr305       O308   1.777       .  S
Cr306       O308   1.772       .  S
Cr307       O308   1.782       .  S
O309       Cr327   1.956       .  S
O309        C317   1.252       .  A
O310       Cr327   2.029       .  S
O310        C311   1.271       .  A
C311        O312   1.261       .  A
C311        C782   1.489       .  S
O312       Cr328   1.976       .  S
O313       Cr328   2.032       .  S
O313        C314   1.269       .  A
C314        O315   1.252       .  A
C314        C746   1.470       .  S
O315       Cr329   1.938       .  S
O316       Cr329   2.010       .  S
O316        C317   1.267       .  A
C317        C557   1.465       .  S
O318       Cr327   2.023       .  S
O318        C326   1.271       .  A
O319       Cr327   1.960       .  S
O319        C320   1.256       .  A
C320        O321   1.271       .  A
C320        C657   1.493       .  S
O321       Cr328   2.038       .  S
O322       Cr328   1.969       .  S
O322        C323   1.260       .  A
C323        O324   1.266       .  A
C323        C702   1.470       .  S
O324       Cr329   2.012       .  S
O325       Cr329   1.938       .  S
O325        C326   1.249       .  A
C326        C553   1.459       .  S
Cr327       O330   1.773       .  S
Cr328       O330   1.773       .  S
Cr329       O330   1.773       .  S
O331       Cr349   1.952       .  S
O331        C339   1.253       .  A
O332       Cr349   1.998       .  S
O332        C333   1.261       .  A
C333        O334   1.257       .  A
C333        C802   1.472       .  S
O334       Cr350   1.976       .  S
O335       Cr350   2.032       .  S
O335        C336   1.272       .  A
C336        O337   1.259       .  A
C336        C786   1.489       .  S
O337       Cr351   1.965       .  S
O338       Cr351   2.008       .  S
O338        C339   1.269       .  A
C339        C549   1.458       .  S
O340       Cr349   1.996       .  S
O340        C348   1.261       .  A
O341       Cr349   1.940       .  S
O341        C342   1.254       .  A
C342        O343   1.274       .  A
C342        C605   1.479       .  S
O343       Cr350   2.041       .  S
O344       Cr350   1.980       .  S
O344        C345   1.260       .  A
C345        O346   1.266       .  A
C345        C621   1.483       .  S
O346       Cr351   2.015       .  S
O347       Cr351   1.969       .  S
O347        C348   1.259       .  A
C348        C569   1.463       .  S
Cr349       O352   1.778       .  S
Cr350       O352   1.772       .  S
Cr351       O352   1.773       .  S
O353       Cr371   1.940       .  S
O353        C361   1.252       .  A
O354       Cr371   2.002       .  S
O354        C355   1.261       .  A
C355        O356   1.257       .  A
C355        C662   1.470       .  S
O356       Cr372   1.972       .  S
O357       Cr372   2.036       .  S
O357        C358   1.273       .  A
C358        O359   1.259       .  A
C358        C698   1.495       .  S
O359       Cr373   1.972       .  S
O360       Cr373   2.026       .  S
O360        C361   1.274       .  A
C361        C554   1.461       .  S
O362       Cr371   1.996       .  S
O362        C370   1.260       .  A
O363       Cr371   1.932       .  S
O363        C364   1.252       .  A
C364        O365   1.274       .  A
C364        C810   1.476       .  S
O365       Cr372   2.042       .  S
O366       Cr372   1.969       .  S
O366        C367   1.258       .  A
C367        O368   1.271       .  A
C367        C770   1.488       .  S
O368       Cr373   2.037       .  S
O369       Cr373   1.973       .  S
O369        C370   1.258       .  A
C370        C545   1.465       .  S
Cr371       O374   1.779       .  S
Cr372       O374   1.771       .  S
Cr373       O374   1.775       .  S
O375       Cr393   1.963       .  S
O375        C383   1.257       .  A
O376       Cr393   1.985       .  S
O376        C377   1.256       .  A
C377        O378   1.257       .  A
C377        C654   1.465       .  S
O378       Cr394   1.981       .  S
O379       Cr394   2.018       .  S
O379        C380   1.268       .  A
C380        O381   1.262       .  A
C380        C626   1.490       .  S
O381       Cr395   1.987       .  S
O382       Cr395   2.013       .  S
O382        C383   1.270       .  A
C383        C561   1.468       .  S
O384       Cr393   1.989       .  S
O384        C392   1.258       .  A
O385       Cr393   1.950       .  S
O385        C386   1.258       .  A
C386        O387   1.271       .  A
C386        C686   1.477       .  S
O387       Cr394   2.031       .  S
O388       Cr394   1.976       .  S
O388        C389   1.261       .  A
C389        O390   1.269       .  A
C389        C670   1.482       .  S
O390       Cr395   2.019       .  S
O391       Cr395   1.989       .  S
O391        C392   1.263       .  A
C392        C542   1.470       .  S
Cr393       O396   1.776       .  S
Cr394       O396   1.774       .  S
Cr395       O396   1.776       .  S
O397       Cr415   2.013       .  S
O397        C405   1.271       .  A
O398       Cr415   1.973       .  S
O398        C399   1.260       .  A
C399        O400   1.271       .  A
C399        C709   1.487       .  S
O400       Cr416   2.025       .  S
O401       Cr416   1.998       .  S
O401        C402   1.260       .  A
C402        O403   1.258       .  A
C402        C730   1.481       .  S
O403       Cr417   1.990       .  S
O404       Cr417   1.956       .  S
O404        C405   1.256       .  A
C405        C566   1.464       .  S
O406       Cr415   1.981       .  S
O406        C414   1.260       .  A
O407       Cr415   2.009       .  S
O407        C408   1.266       .  A
C408        O409   1.263       .  A
C408        C598   1.492       .  S
O409       Cr416   1.996       .  S
O410       Cr416   2.034       .  S
O410        C411   1.273       .  A
C411        O412   1.256       .  A
C411        C582   1.473       .  S
O412       Cr417   1.940       .  S
O413       Cr417   1.994       .  S
O413        C414   1.258       .  A
C414        C537   1.468       .  S
Cr415       O418   1.774       .  S
Cr416       O418   1.775       .  S
Cr417       O418   1.778       .  S
O419       Cr437   2.009       .  S
O419        C427   1.263       .  A
O420       Cr437   1.959       .  S
O420        C421   1.260       .  A
C421        O422   1.271       .  A
C421        C762   1.475       .  S
O422       Cr438   2.023       .  S
O423       Cr438   1.979       .  S
O423        C424   1.259       .  A
C424        O425   1.266       .  A
C424        C738   1.481       .  S
O425       Cr439   2.008       .  S
O426       Cr439   1.967       .  S
O426        C427   1.257       .  A
C427        C573   1.471       .  S
O428       Cr437   1.961       .  S
O428        C436   1.256       .  A
O429       Cr437   2.001       .  S
O429        C430   1.261       .  A
C430        O431   1.257       .  A
C430        C586   1.477       .  S
O431       Cr438   1.981       .  S
O432       Cr438   2.016       .  S
O432        C433   1.268       .  A
C433        O434   1.258       .  A
C433        C642   1.477       .  S
O434       Cr439   1.969       .  S
O435       Cr439   2.014       .  S
O435        C436   1.270       .  A
C436        C533   1.466       .  S
Cr437       O440   1.780       .  S
Cr438       O440   1.772       .  S
Cr439       O440   1.775       .  S
O441       Cr459   1.933       .  S
O441        C449   1.248       .  A
O442       Cr459   2.015       .  S
O442        C443   1.267       .  A
C443        O444   1.261       .  A
C443        C678   1.474       .  S
O444       Cr460   1.973       .  S
O445       Cr460   2.037       .  S
O445        C446   1.269       .  A
C446        O447   1.255       .  A
C446        C718   1.493       .  S
O447       Cr461   1.965       .  S
O448       Cr461   2.024       .  S
O448        C449   1.272       .  A
C449        C530   1.458       .  S
O450       Cr459   2.006       .  S
O450        C458   1.265       .  A
O451       Cr459   1.944       .  S
O451        C452   1.252       .  A
C452        O453   1.269       .  A
C452        C778   1.476       .  S
O453       Cr460   2.035       .  S
O454       Cr460   1.975       .  S
O454        C455   1.262       .  A
C455        O456   1.274       .  A
C455        C750   1.490       .  S
O456       Cr461   2.034       .  S
O457       Cr461   1.955       .  S
O457        C458   1.252       .  A
C458        C558   1.465       .  S
Cr459       O462   1.777       .  S
Cr460       O462   1.775       .  S
Cr461       O462   1.775       .  S
O463       Cr481   1.972       .  S
O463        C471   1.259       .  A
O464       Cr481   2.029       .  S
O464        C465   1.270       .  A
C465        O466   1.260       .  A
C465        C814   1.482       .  S
O466       Cr482   1.970       .  S
O467       Cr482   2.040       .  S
O467        C468   1.274       .  A
C468        O469   1.252       .  A
C468        C766   1.475       .  S
O469       Cr483   1.932       .  S
O470       Cr483   1.999       .  S
O470        C471   1.261       .  A
C471        C546   1.466       .  S
O472       Cr481   2.027       .  S
O472        C480   1.274       .  A
O473       Cr481   1.966       .  S
O473        C474   1.260       .  A
C474        O475   1.269       .  A
C474        C674   1.486       .  S
O475       Cr482   2.027       .  S
O476       Cr482   1.979       .  S
O476        C477   1.257       .  A
C477        O478   1.261       .  A
C477        C722   1.474       .  S
O478       Cr483   1.999       .  S
O479       Cr483   1.942       .  S
O479        C480   1.251       .  A
C480        C529   1.463       .  S
Cr481       O484   1.769       .  S
Cr482       O484   1.771       .  S
Cr483       O484   1.776       .  S
O485       Cr503   1.971       .  S
O485        C493   1.258       .  A
O486       Cr503   2.015       .  S
O486        C487   1.267       .  A
C487        O488   1.260       .  A
C487        C590   1.485       .  S
O488       Cr504   1.981       .  S
O489       Cr504   2.036       .  S
O489        C490   1.273       .  A
C490        O491   1.257       .  A
C490        C638   1.477       .  S
O491       Cr505   1.941       .  S
O492       Cr505   2.001       .  S
O492        C493   1.260       .  A
C493        C534   1.467       .  S
O494       Cr503   2.013       .  S
O494        C502   1.271       .  A
O495       Cr503   1.967       .  S
O495        C496   1.258       .  A
C496        O497   1.271       .  A
C496        C797   1.487       .  S
O497       Cr504   2.029       .  S
O498       Cr504   1.981       .  S
O498        C499   1.259       .  A
C499        O500   1.260       .  A
C499        C790   1.473       .  S
O500       Cr505   1.998       .  S
O501       Cr505   1.948       .  S
O501        C502   1.254       .  A
C502        C550   1.456       .  S
Cr503       O506   1.771       .  S
Cr504       O506   1.772       .  S
Cr505       O506   1.778       .  S
O507       Cr525   1.987       .  S
O507        C515   1.261       .  A
O508       Cr525   2.025       .  S
O508        C509   1.268       .  A
C509        O510   1.260       .  A
C509        C690   1.483       .  S
O510       Cr526   1.972       .  S
O511       Cr526   2.031       .  S
O511        C512   1.271       .  A
C512        O513   1.258       .  A
C512        C666   1.479       .  S
O513       Cr527   1.956       .  S
O514       Cr527   1.993       .  S
O514        C515   1.259       .  A
C515        C541   1.473       .  S
O516       Cr525   2.021       .  S
O516        C524   1.272       .  A
O517       Cr525   1.992       .  S
O517        C518   1.263       .  A
C518        O519   1.269       .  A
C518        C578   1.496       .  S
O519       Cr526   2.023       .  S
O520       Cr526   1.972       .  S
O520        C521   1.256       .  A
C521        O522   1.259       .  A
C521        C602   1.464       .  S
O522       Cr527   1.992       .  S
O523       Cr527   1.956       .  S
O523        C524   1.255       .  A
C524        C538   1.468       .  S
Cr525       O528   1.779       .  S
Cr526       O528   1.770       .  S
Cr527       O528   1.779       .  S
C529        C530   1.327   1_565  D
C529        H531   1.088       .  S
C530        H532   1.087   1_545  S
C533        C534   1.339   1_455  D
C533        H535   1.087   1_455  S
C534        H536   1.087       .  S
C537        C538   1.336   1_455  D
C537        H539   1.087   1_455  S
C538        H540   1.087       .  S
C541        C542   1.337   1_565  D
C541        H543   1.087       .  S
C542        H544   1.087   1_545  S
C545        C546   1.338   1_554  D
C545        H547   1.087   1_554  S
C546        H548   1.087       .  S
C549        C550   1.332   1_554  D
C549        H551   1.087   1_554  S
C550        H552   1.087       .  S
C553        C554   1.328   1_545  D
C553        H555   1.088   1_545  S
C554        H556   1.087       .  S
C557        C558   1.335   1_554  D
C557        H559   1.087   1_554  S
C558        H560   1.087   1_556  S
C561        C562   1.339       .  D
C561        H563   1.087       .  S
C562        H564   1.087       .  S
C565        C566   1.333       .  D
C565        H567   1.087       .  S
C566        H568   1.087       .  S
C569        C570   1.336       .  D
C569        H571   1.087       .  S
C570        H572   1.087       .  S
C573        C574   1.343   1_556  D
C573        H575   1.087   1_556  S
C574        H576   1.087       .  S
C577        C578   1.352       .  D
C577        H579   1.086       .  S
C578        H580   1.086       .  S
C581        C582   1.349       .  D
C581        H583   1.087       .  S
C582        H584   1.086       .  S
C585        C586   1.348       .  D
C585        H587   1.087       .  S
C586        H588   1.087       .  S
C589        C590   1.348       .  D
C589        H591   1.087       .  S
C590        H592   1.087       .  S
C593        C594   1.341   1_655  D
C593        H595   1.087       .  S
C594        H596   1.087       .  S
C597        C598   1.352       .  D
C597        H599   1.087       .  S
C598        H600   1.086       .  S
C601        C602   1.348       .  D
C601        H603   1.086       .  S
C602        H604   1.087       .  S
C605        C606   1.353       .  D
C605        H607   1.086       .  S
C606        H608   1.087       .  S
C609        C610   1.349       .  D
C609        H611   1.086       .  S
C610        H612   1.087       .  S
C613        C614   1.332       .  D
C613        H615   1.087   1_655  S
C614        H616   1.087       .  S
C617        C618   1.348       .  D
C617        H619   1.087       .  S
C618        H620   1.086       .  S
C621        C622   1.349       .  D
C621        H623   1.087       .  S
C622        H624   1.087       .  S
C625        C626   1.350       .  D
C625        H627   1.086       .  S
C626        H628   1.086       .  S
C629        C630   1.349       .  D
C629        H631   1.087       .  S
C630        H632   1.086       .  S
C633        C634   1.335   1_655  D
C633        H635   1.087       .  S
C634        H636   1.087       .  S
C637        C638   1.348       .  D
C637        H639   1.087       .  S
C638        H640   1.086       .  S
C641        C642   1.349       .  D
C641        H643   1.086       .  S
C642        H644   1.087       .  S
C645        C646   1.333   1_455  D
C645        H647   1.087       .  S
C646        H648   1.087       .  S
C649        C650   1.350       .  D
C649        H651   1.086       .  S
C650        H652   1.087       .  S
C653        C654   1.348       .  D
C653        H655   1.087       .  S
C654        H656   1.087       .  S
C657        C658   1.353       .  D
C657        H659   1.086       .  S
C658        H660   1.087       .  S
C661        C662   1.350       .  D
C661        H663   1.086       .  S
C662        H664   1.087       .  S
C665        C666   1.348       .  D
C665        H667   1.087       .  S
C666        H668   1.086       .  S
C669        C670   1.349       .  D
C669        H671   1.086       .  S
C670        H672   1.087       .  S
C673        C674   1.348       .  D
C673        H675   1.087       .  S
C674        H676   1.086       .  S
C677        C678   1.351       .  D
C677        H679   1.086       .  S
C678        H680   1.087       .  S
C681        C682   1.331   1_545  D
C681        H683   1.087       .  S
C682        H684   1.087       .  S
C685        C686   1.346       .  D
C685        H687   1.087       .  S
C686        H688   1.086       .  S
C689        C690   1.352       .  D
C689        H691   1.086       .  S
C690        H692   1.087       .  S
C693        C694   1.339   1_565  D
C693        H695   1.087       .  S
C694        H696   1.087       .  S
C697        C698   1.355       .  D
C697        H699   1.087       .  S
C698        H700   1.086       .  S
C701        C702   1.350       .  D
C701        H703   1.086       .  S
C702        H704   1.087       .  S
C705        C706   1.352       .  D
C705        H707   1.087       .  S
C706        H708   1.087       .  S
C709        C710   1.352       .  D
C709        H711   1.087       .  S
C710        H712   1.086       .  S
C713        C714   1.336   1_545  D
C713        H715   1.087       .  S
C714        H716   1.087       .  S
C717        C718   1.353       .  D
C717        H719   1.087       .  S
C718        H720   1.086       .  S
C721        C722   1.349       .  D
C721        H723   1.086       .  S
C722        H724   1.087       .  S
C725        C726   1.331   1_545  D
C725        H727   1.087       .  S
C726        H728   1.087       .  S
C729        C730   1.350       .  D
C729        H731   1.087       .  S
C730        H732   1.086       .  S
C733        C734   1.351       .  D
C733        H735   1.087       .  S
C734        H736   1.086       .  S
C737        C738   1.347       .  D
C737        H739   1.087       .  S
C738        H740   1.087       .  S
C741        C742   1.350       .  D
C741        H743   1.087       .  S
C742        H744   1.086       .  S
C745        C746   1.350       .  D
C745        H747   1.087       .  S
C746        H748   1.086       .  S
C749        C750   1.350       .  D
C749        H751   1.086       .  S
C750        H752   1.087       .  S
C753        C754   1.331   1_554  D
C753        H755   1.087       .  S
C754        H756   1.087       .  S
C757        C758   1.351       .  D
C757        H759   1.087       .  S
C758        H760   1.086       .  S
C761        C762   1.345       .  D
C761        H763   1.087       .  S
C762        H764   1.086       .  S
C765        C766   1.353       .  D
C765        H767   1.087       .  S
C766        H768   1.086       .  S
C769        C770   1.349       .  D
C769        H771   1.086       .  S
C770        H772   1.087       .  S
C773        C774   1.336   1_554  D
C773        H775   1.087       .  S
C774        H776   1.087       .  S
C777        C778   1.351       .  D
C777        H779   1.087       .  S
C778        H780   1.086       .  S
C781        C782   1.351       .  D
C781        H783   1.086       .  S
C782        H784   1.087       .  S
C785        C786   1.352       .  D
C785        H787   1.087       .  S
C786        H788   1.086       .  S
C789        C790   1.351       .  D
C789        H791   1.086       .  S
C790        H792   1.087       .  S
C793        C794   1.331   1_556  D
C793        H795   1.087       .  S
C794        H796   1.087       .  S
C797        C798   1.353       .  D
C797        H799   1.086       .  S
C798        H800   1.087       .  S
C801        C802   1.347       .  D
C801        H803   1.087       .  S
C802        H804   1.087       .  S
C805        C806   1.333   1_554  D
C805        H807   1.087       .  S
C806        H808   1.087       .  S
C809        C810   1.354       .  D
C809        H811   1.087       .  S
C810        H812   1.086       .  S
C813        C814   1.350       .  D
C813        H815   1.086       .  S
C814        H816   1.087       .  S
