geometry optimzed in LAMMPS
_audit_creation_date              2020-11-30 
_audit_creation_method            'lammps2cif' 
_symmetry_space_group_name_H-M    'P1' 
_symmetry_Int_Tables_number       1 
_symmetry_cell_setting            triclinic 
loop_ 
_symmetry_equiv_pos_as_xyz 
  x,y,z 
_cell_length_a                    48.06423797 
_cell_length_b                    47.946004015150834 
_cell_length_c                    38.03751062984699 
_cell_angle_alpha                 90.17980129278668 
_cell_angle_beta                  89.81973502209179 
_cell_angle_gamma                 120.2707759627526 
loop_ 
_atom_site_label 
_atom_site_type_symbol 
_atom_site_fract_x 
_atom_site_fract_y 
_atom_site_fract_z 
_atom_site_charge 
Fe1        Fe  0.56875005  0.66958586  0.42594871     1.65800
Fe2        Fe  0.50722408  0.66947040  0.38105433     1.73200
Fe3        Fe  0.50650441  0.66838434  0.47098919     1.54400
O4          O  0.50770455  0.62758194  0.48575603    -0.81800
O5          O  0.49295085  0.70106410  0.40053698    -0.80100
O6          O  0.54946200  0.62943075  0.45719310    -0.84300
O7          O  0.58819673  0.69969074  0.46847547    -0.79100
O8          O  0.46064744  0.63853957  0.45172247    -0.80900
O9          O  0.54969594  0.70940811  0.36450896    -0.83700
C10         C  0.57813426  0.70757369  0.49527282     0.97100
C11         C  0.52521713  0.61556813  0.47752095     1.04500
O12         O  0.52760766  0.66931140  0.42597591    -1.12600
O13         O  0.51816207  0.63797965  0.35382535    -0.75100
O14         O  0.55821790  0.63940961  0.38353838    -0.78600
O15         O  0.54849692  0.69827942  0.49919597    -0.79200
C16         C  0.53912703  0.62950147  0.35776746     0.96000
O17         O  0.58991707  0.70953733  0.39435332    -0.77200
O18         O  0.46273512  0.62989704  0.39451819    -0.82400
C19         C  0.49329247  0.71454857  0.42957989     0.98600
C20         C  0.44718282  0.62439222  0.42323982     1.04600
O21         O  0.50241141  0.70813364  0.45830893    -0.78000
C22         C  0.57937465  0.72198020  0.37249001     1.02900
Fe23       Fe  0.65668583  0.57447364  0.09197603     1.65800
Fe24       Fe  0.66184208  0.51551190  0.13661136     1.73200
Fe25       Fe  0.65468373  0.51219252  0.04635806     1.54400
O26         O  0.61467342  0.51543463  0.03160397    -0.81800
O27         O  0.69335815  0.50215570  0.11535736    -0.80100
O28         O  0.61437108  0.55371109  0.06508202    -0.84300
O29         O  0.68283059  0.59270629  0.04678441    -0.79100
O30         O  0.62339533  0.46705857  0.06700482    -0.80900
O31         O  0.70230374  0.55947366  0.14997715    -0.83700
C32         C  0.69319315  0.58342329  0.02146042     0.97100
C33         C  0.60155725  0.53133792  0.04236293     1.04500
O34         O  0.65765160  0.53388984  0.09168973    -1.12600
O35         O  0.63097565  0.52585064  0.16639253    -0.75100
O36         O  0.63064518  0.56537184  0.13723779    -0.78600
O37         O  0.68625281  0.55420750  0.01867612    -0.79200
C38         C  0.62254058  0.54700024  0.16358186     0.96000
O39         O  0.69895506  0.59711990  0.11867286    -0.77200
O40         O  0.62279832  0.46962747  0.12556381    -0.82400
C41         C  0.70362075  0.49988113  0.08524776     0.98600
C42         C  0.61296929  0.45381458  0.09680756     1.04600
O43         O  0.69336204  0.50556206  0.05692183    -0.78000
C44         C  0.71397246  0.58842794  0.13912840     1.02900
Fe45       Fe  0.75039503  0.75536424  0.76030093     1.65800
Fe46       Fe  0.81309291  0.81847053  0.80322256     1.73200
Fe47       Fe  0.81152651  0.81631271  0.71336505     1.54400
O48         O  0.80773170  0.77343073  0.69719971    -0.81800
O49         O  0.82775403  0.86388673  0.78360858    -0.80100
O50         O  0.76857297  0.73347471  0.72886308    -0.84300
O51         O  0.73011396  0.76499078  0.71792957    -0.79100
O52         O  0.85783111  0.83057329  0.73072495    -0.80900
O53         O  0.77126238  0.81667484  0.81998276    -0.83700
C54         C  0.73929168  0.78439184  0.69236702     0.97100
C55         C  0.79112347  0.74389687  0.70625421     1.04500
O56         O  0.79171313  0.79664376  0.75895546    -1.12600
O57         O  0.80251932  0.77685244  0.83112985    -0.75100
O58         O  0.76183975  0.73689505  0.80288434    -0.78600
O59         O  0.76874989  0.80553955  0.68816677    -0.79200
C60         C  0.78158906  0.74715380  0.82807957     0.96000
O61         O  0.73025745  0.77543781  0.79159917    -0.77200
O62         O  0.85694374  0.82343308  0.78878353    -0.82400
C63         C  0.82725872  0.87695885  0.75486021     0.98600
C64         C  0.87172610  0.83138973  0.75944092     1.04600
O65         O  0.81764118  0.86113846  0.72628303    -0.78000
C66         C  0.74155795  0.79981656  0.81193658     1.02900
Fe67       Fe  0.33014145  0.42629151  0.90360831     1.65800
Fe68       Fe  0.32201650  0.48361428  0.85913958     1.73200
Fe69       Fe  0.32489949  0.48494469  0.94940027     1.54400
O70         O  0.29455472  0.44128733  0.97533220    -0.81800
O71         O  0.35966526  0.52968432  0.87190242    -0.80100
O72         O  0.29963686  0.40457299  0.94521478    -0.84300
O73         O  0.36912051  0.44680657  0.93599175    -0.79100
O74         O  0.28456563  0.48840154  0.93667301    -0.80900
O75         O  0.35437632  0.47498210  0.83058687    -0.83700
C76         C  0.37984864  0.46914333  0.95873845     0.97100
C77         C  0.28832973  0.41236422  0.97098268     1.04500
O78         O  0.32576436  0.46504480  0.90407063    -1.12600
O79         O  0.28321499  0.43917298  0.84437321    -0.75100
O80         O  0.29130030  0.40257601  0.87140103    -0.78600
O81         O  0.36582274  0.48485024  0.96668450    -0.79200
C82         C  0.27462931  0.41003899  0.85208486     0.96000
O83         O  0.36155365  0.44051375  0.86212739    -0.77200
O84         O  0.28902970  0.49550803  0.87880111    -0.82400
C85         C  0.36744187  0.54490621  0.90114100     0.98600
C86         C  0.27612623  0.49556891  0.90797579     1.04600
O87         O  0.35516866  0.53114707  0.93029916    -0.78000
C88         C  0.36730077  0.45775420  0.83506323     1.02900
Fe89       Fe  0.41612966  0.32864311  0.57730012     1.65800
Fe90       Fe  0.48082945  0.33287660  0.61946237     1.73200
Fe91       Fe  0.47936902  0.33533717  0.52992056     1.54400
O92         O  0.43734609  0.30643501  0.50148778    -0.81800
O93         O  0.52358856  0.37386028  0.60557990    -0.80100
O94         O  0.39653434  0.29682827  0.53602884    -0.84300
O95         O  0.43141838  0.36766920  0.54506637    -0.79100
O96         O  0.48386980  0.29517038  0.54040847    -0.80900
O97         O  0.46848687  0.36266165  0.64790588    -0.83700
C98         C  0.45666326  0.38496692  0.52710009     0.97100
C99         C  0.40729754  0.29315009  0.50714326     1.04500
O100        O  0.45861213  0.33211450  0.57563904    -1.12600
O101        O  0.44041804  0.29182913  0.63748156    -0.75100
O102        O  0.39845202  0.28996428  0.61003129    -0.78600
O103        O  0.47687296  0.37626455  0.51860963    -0.79200
C104        C  0.41040532  0.27853099  0.63128875     0.96000
O105        O  0.42719082  0.35962322  0.61896240    -0.77200
O106        O  0.49623837  0.30300253  0.59748086    -0.82400
C107        C  0.53895357  0.37992531  0.57679111     0.98600
C108        C  0.49420956  0.28877026  0.56838140     1.04600
O109        O  0.52545650  0.36518697  0.54859226    -0.78000
C110        C  0.44668823  0.37006092  0.64443644     1.02900
Fe111      Fe  0.23561059  0.24493380  0.23835126     1.65800
Fe112      Fe  0.17486428  0.18018152  0.19605632     1.73200
Fe113      Fe  0.17474200  0.18503640  0.28610434     1.54400
O114        O  0.21738154  0.19653316  0.31267033    -0.81800
O115        O  0.13062860  0.17568055  0.20855515    -0.80100
O116        O  0.25484955  0.23812589  0.28315225    -0.84300
O117        O  0.21581998  0.26683828  0.26581721    -0.79100
O118        O  0.16838292  0.13967470  0.27546084    -0.80900
O119        O  0.18558129  0.22075398  0.16563568    -0.83700
C120        C  0.19409640  0.25745994  0.28921217     0.97100
C121        C  0.24632091  0.21930760  0.30912796     1.04500
O122        O  0.19496064  0.20338216  0.24018781    -1.12600
O123        O  0.21743407  0.18167542  0.18230871    -0.75100
O124        O  0.25671602  0.22401760  0.21137069    -0.78600
O125        O  0.17843382  0.22852439  0.30051938    -0.79200
C126        C  0.24640188  0.19853658  0.19310163     0.96000
O127        O  0.22568120  0.26145162  0.19338615    -0.77200
O128        O  0.16046077  0.13545704  0.21761303    -0.82400
C129        C  0.11547518  0.16913756  0.23772096     0.98600
C130        C  0.16055297  0.12330887  0.24715392     1.04600
O131        O  0.12903214  0.17056689  0.26693032    -0.78000
C132        C  0.20653016  0.25053211  0.16779842     1.02900
Fe133      Fe  0.41456342  0.08733928  0.09098512     1.65800
Fe134      Fe  0.47532780  0.15133746  0.04778581     1.73200
Fe135      Fe  0.47633478  0.14794894  0.13691655     1.54400
O136        O  0.43512889  0.14716985  0.15364812    -0.81800
O137        O  0.52176151  0.16698197  0.06650228    -0.80100
O138        O  0.39478865  0.10320666  0.12806052    -0.84300
O139        O  0.42770744  0.06552582  0.12827756    -0.79100
O140        O  0.49404847  0.19518059  0.11958026    -0.80900
O141        O  0.47451735  0.11068205  0.02867279    -0.83700
C142        C  0.44365337  0.07468337  0.15645983     0.97100
C143        C  0.40527819  0.12766856  0.14813423     1.04500
O144        O  0.45526170  0.12870829  0.09186242    -1.12600
O145        O  0.43231065  0.13895801  0.02123743    -0.75100
O146        O  0.39332575  0.10088732  0.05332177    -0.78600
O147        O  0.46224754  0.10445023  0.16316361    -0.79200
C148        C  0.40261139  0.11888859  0.02657016     0.96000
O149        O  0.43177429  0.06886284  0.05393769    -0.77200
O150        O  0.47815357  0.19395461  0.06448494    -0.82400
C151        C  0.53489621  0.16291324  0.09360016     0.98600
C152        C  0.49092100  0.20921127  0.09279439     1.04600
O153        O  0.51899301  0.15035176  0.12168948    -0.78000
C154        C  0.45596995  0.08053034  0.03347445     1.02900
Fe155      Fe  0.23429201  0.00250966  0.76228797     1.65800
Fe156      Fe  0.17573516  0.00539022  0.71405820     1.73200
Fe157      Fe  0.17004370  0.99992361  0.80410607     1.54400
O158        O  0.17354089  0.96086217  0.82091397    -0.81800
O159        O  0.16008907  0.03584505  0.73284564    -0.80100
O160        O  0.21418097  0.96145159  0.79143541    -0.84300
O161        O  0.25124360  0.03088514  0.80643848    -0.79100
O162        O  0.12581138  0.96724256  0.78215837    -0.80900
O163        O  0.21908783  0.04604427  0.70139892    -0.83700
C164        C  0.24059980  0.04061502  0.83112884     0.97100
C165        C  0.19082478  0.94860030  0.81284829     1.04500
O166        O  0.19327693  0.00255256  0.76012154    -1.12600
O167        O  0.18837522  0.97552405  0.68652207    -0.75100
O168        O  0.22615340  0.97446817  0.71839089    -0.78600
O169        O  0.21097510  0.03227612  0.83294509    -0.79200
C170        C  0.20898404  0.96671155  0.69103647     0.96000
O171        O  0.25679508  0.04355844  0.73354841    -0.77200
O172        O  0.13058426  0.96553658  0.72388563    -0.82400
C173        C  0.15703427  0.04679987  0.76215965     0.98600
C174        C  0.11403174  0.95569456  0.75206170     1.04600
O175        O  0.16304379  0.03797341  0.79126911    -0.78000
C176        C  0.24791944  0.05775735  0.71221885     1.02900
Fe177      Fe  0.32137726  0.90506895  0.42210153     1.65800
Fe178      Fe  0.32625770  0.84818815  0.47008041     1.73200
Fe179      Fe  0.31810724  0.84100033  0.38001501     1.54400
O180        O  0.27876446  0.84491964  0.36465840    -0.81800
O181        O  0.35830942  0.83519703  0.45054080    -0.80100
O182        O  0.27732587  0.88184332  0.39960777    -0.84300
O183        O  0.34329226  0.91952906  0.37424315    -0.79100
O184        O  0.28557833  0.79717156  0.40223378    -0.80900
O185        O  0.36600027  0.89303933  0.48213804    -0.83700
C186        C  0.35499144  0.91003888  0.35059234     0.97100
C187        C  0.26461923  0.85926437  0.37710089     1.04500
O188        O  0.32188954  0.86450898  0.42409973    -1.12600
O189        O  0.29450175  0.85833769  0.49764700    -0.75100
O190        O  0.29938357  0.90055341  0.46942702    -0.78600
O191        O  0.35035254  0.88153612  0.35075195    -0.79200
C192        C  0.28899581  0.88152085  0.49515976     0.96000
O193        O  0.36549215  0.92861806  0.44458064    -0.77200
O194        O  0.28805145  0.80186385  0.46077984    -0.82400
C195        C  0.36774320  0.83078524  0.42091232     0.98600
C196        C  0.27629406  0.78544164  0.43278693     1.04600
O197        O  0.35615047  0.83375573  0.39204984    -0.78000
C198        C  0.37932606  0.92085105  0.46766346     1.02900
Fe199      Fe  0.56410221  0.91154168  0.90650618     1.65800
Fe200      Fe  0.50261922  0.84996738  0.95114934     1.73200
Fe201      Fe  0.50636380  0.84736098  0.86093323     1.54400
O202        O  0.51586378  0.88865903  0.83216357    -0.81800
O203        O  0.49559372  0.80448768  0.93951307    -0.80100
O204        O  0.55731067  0.92805276  0.85965633    -0.84300
O205        O  0.58787186  0.89180487  0.88247474    -0.79100
O206        O  0.46018517  0.83956472  0.87219767    -0.80900
O207        O  0.54423896  0.85999283  0.97852771    -0.83700
C208        C  0.57967954  0.86900387  0.86045681     0.97100
C209        C  0.53800520  0.91807207  0.83417147     1.04500
O210        O  0.52421877  0.86939335  0.90613064    -1.12600
O211        O  0.50584571  0.89320196  0.96665939    -0.75100
O212        O  0.54076449  0.93173635  0.93029304    -0.78600
O213        O  0.55115490  0.85251933  0.84791131    -0.79200
C214        C  0.51899117  0.92157054  0.95370110     0.96000
O215        O  0.58062169  0.90541773  0.95369465    -0.77200
O216        O  0.45815877  0.83686623  0.93071686    -0.82400
C217        C  0.49043366  0.78903199  0.91075459     0.98600
C218        C  0.44481495  0.83426602  0.90121474     1.04600
O219        O  0.49342766  0.80225626  0.88101594    -0.78000
C220        C  0.57223452  0.88467479  0.97779412     1.02900
Fe221      Fe  0.75081461  0.99657863  0.23751294     1.65800
Fe222      Fe  0.81357771  0.99763031  0.27993215     1.73200
Fe223      Fe  0.81316523  0.00002850  0.19030181     1.54400
O224        O  0.77112632  0.97086770  0.16209618    -0.81800
O225        O  0.85704874  0.03850340  0.26659189    -0.80100
O226        O  0.73132392  0.96737830  0.19448947    -0.84300
O227        O  0.76923704  0.03716686  0.20781765    -0.79100
O228        O  0.81729741  0.95977416  0.20133605    -0.80900
O229        O  0.80170485  0.02705023  0.30914736    -0.83700
C230        C  0.79375424  0.05226414  0.18813122     0.97100
C231        C  0.74142682  0.96071638  0.16690365     1.04500
O232        O  0.79238698  0.99799379  0.23588832    -1.12600
O233        O  0.77198493  0.95605310  0.29585097    -0.75100
O234        O  0.73114544  0.95592935  0.26735532    -0.78600
O235        O  0.81148241  0.04110725  0.17771246    -0.79200
C236        C  0.74229006  0.94291755  0.28758718     0.96000
O237        O  0.76099775  0.02568570  0.28101142    -0.77200
O238        O  0.82917163  0.96838202  0.25830779    -0.82400
C239        C  0.87268221  0.04411853  0.23790148     0.98600
C240        C  0.82794847  0.95424889  0.22953755     1.04600
O241        O  0.85920883  0.02972080  0.20950686    -0.78000
C242        C  0.78034893  0.03503663  0.30658305     1.02900
Fe243      Fe  0.66348209  0.09338670  0.57087205     1.65800
Fe244      Fe  0.66212227  0.15319511  0.52386544     1.73200
Fe245      Fe  0.65861599  0.15369938  0.61332225     1.54400
O246        O  0.62779257  0.11073217  0.64055050    -0.81800
O247        O  0.70137587  0.19708416  0.53764290    -0.80100
O248        O  0.63156057  0.07286198  0.61156428    -0.84300
O249        O  0.70182066  0.11408572  0.60508836    -0.79100
O250        O  0.61842290  0.15569018  0.59670001    -0.80900
O251        O  0.69245872  0.14076902  0.49720889    -0.83700
C252        C  0.71274428  0.13778212  0.62645759     0.97100
C253        C  0.62055321  0.08143880  0.63688477     1.04500
O254        O  0.66155033  0.13337464  0.56940228    -1.12600
O255        O  0.62221428  0.11074523  0.50885265    -0.75100
O256        O  0.62491173  0.07098811  0.53698708    -0.78600
O257        O  0.69892321  0.15403224  0.63261976    -0.79200
C258        C  0.61086546  0.08116607  0.51677230     0.96000
O259        O  0.69581782  0.10498423  0.53045194    -0.77200
O260        O  0.63164473  0.16944266  0.54081170    -0.82400
C261        C  0.70513823  0.21308286  0.56574837     0.98600
C262        C  0.61494336  0.16692504  0.56783680     1.04600
O263        O  0.68931559  0.20006150  0.59380636    -0.78000
C264        C  0.70292779  0.12160957  0.50272467     1.02900
Fe265      Fe  0.08465521  0.42137552  0.42033298     1.65800
Fe266      Fe  0.14206784  0.48395001  0.46857082     1.73200
Fe267      Fe  0.14561018  0.48638730  0.37855528     1.54400
O268        O  0.14598830  0.44596726  0.36064185    -0.81800
O269        O  0.15619375  0.53007783  0.45093941    -0.80100
O270        O  0.10688588  0.40358188  0.38962497    -0.84300
O271        O  0.06574924  0.43123025  0.37718534    -0.79100
O272        O  0.19107026  0.50211938  0.39939695    -0.80900
O273        O  0.09815539  0.47930421  0.48245392    -0.83700
C274        C  0.07470480  0.45119251  0.35223683     0.97100
C275        C  0.13039203  0.41607112  0.36825227     1.04500
O276        O  0.12411606  0.46385368  0.42249889    -1.12600
O277        O  0.13103613  0.44159780  0.49557651    -0.75100
O278        O  0.09448110  0.40198872  0.46306098    -0.78600
O279        O  0.10365403  0.47425619  0.35000375    -0.79200
C280        C  0.11121188  0.41180986  0.49062862     0.96000
O281        O  0.06093047  0.43767097  0.45081155    -0.77200
O282        O  0.18738973  0.49075885  0.45658983    -0.82400
C283        C  0.15580585  0.54377984  0.42256816     0.98600
C284        C  0.20375451  0.50092544  0.42828828     1.04600
O285        O  0.14789101  0.52897361  0.39331459    -0.78000
C286        C  0.06919971  0.46086961  0.47229918     1.02900
Fe287      Fe  0.90069864  0.33439387  0.09057540     1.65800
Fe288      Fe  0.83770882  0.33191565  0.04622888     1.73200
Fe289      Fe  0.83828028  0.33228932  0.13632007     1.54400
O290        O  0.84233178  0.29342566  0.15280848    -0.81800
O291        O  0.82372589  0.36395144  0.06465647    -0.80100
O292        O  0.88314775  0.29522355  0.12239500    -0.84300
O293        O  0.92015626  0.36530856  0.13249393    -0.79100
O294        O  0.79226104  0.29951725  0.11839687    -0.80900
O295        O  0.87956669  0.37134099  0.02807696    -0.83700
C296        C  0.91036715  0.37435101  0.15859216     0.97100
C297        C  0.86005753  0.28178437  0.14412891     1.04500
O298        O  0.85892432  0.33294067  0.09103547    -1.12600
O299        O  0.84849180  0.30001843  0.02010186    -0.75100
O300        O  0.89031822  0.30385959  0.04846759    -0.78600
O301        O  0.88066724  0.36489235  0.16273244    -0.79200
C302        C  0.87051405  0.29293918  0.02331095     0.96000
O303        O  0.92043491  0.37345220  0.05850723    -0.77200
O304        O  0.79361089  0.29269715  0.06070667    -0.82400
C305        C  0.82348139  0.37737800  0.09350625     0.98600
C306        C  0.77850968  0.28562369  0.08981457     1.04600
O307        O  0.83163753  0.37044280  0.12256973    -0.78000
C308        C  0.90930261  0.38454762  0.03586085     1.02900
Fe309      Fe  0.99150067  0.24207917  0.75716020     1.65800
Fe310      Fe  0.98741969  0.17747220  0.79988429     1.73200
Fe311      Fe  0.98479344  0.17826606  0.70991956     1.54400
O312        O  0.94612456  0.18389854  0.69604298    -0.81800
O313        O  0.01696258  0.16155954  0.77929680    -0.80100
O314        O  0.95060432  0.22543337  0.72781089    -0.84300
O315        O  0.02061979  0.26047699  0.71367099    -0.79100
O316        O  0.95200220  0.13300710  0.72841903    -0.80900
O317        O  0.02909488  0.21838454  0.81626155    -0.83700
C318        C  0.02823062  0.24986983  0.68711630     0.97100
C319        C  0.93550033  0.20212637  0.70651386     1.04500
O320        O  0.98795111  0.19928462  0.75566203    -1.12600
O321        O  0.95801718  0.19017549  0.82828635    -0.75100
O322        O  0.96338757  0.23311536  0.80094066    -0.78600
O323        O  0.01740740  0.21989566  0.68289460    -0.79200
C324        C  0.95232315  0.21326316  0.82600591     0.96000
O325        O  0.03227361  0.26042487  0.78686055    -0.77200
O326        O  0.94650217  0.13410464  0.78631714    -0.82400
C327        C  0.02951146  0.16124883  0.74993278     0.98600
C328        C  0.93858576  0.11919736  0.75700884     1.04600
O329        O  0.02228148  0.16986492  0.72133698    -0.78000
C330        C  0.04368399  0.24810816  0.80770696     1.02900
Fe331      Fe  0.08003464  0.66053041  0.90779817     1.65800
Fe332      Fe  0.14196548  0.65981117  0.95084834     1.73200
Fe333      Fe  0.14367141  0.66682772  0.86107763     1.54400
O334        O  0.10232615  0.63734977  0.83184327    -0.81800
O335        O  0.18655690  0.70039223  0.93949622    -0.80100
O336        O  0.06178201  0.63325731  0.86320987    -0.84300
O337        O  0.09827589  0.70223268  0.88043224    -0.79100
O338        O  0.14922500  0.62712611  0.87011816    -0.80900
O339        O  0.13047138  0.68939758  0.98061345    -0.83700
C340        C  0.12292389  0.71855603  0.86141639     0.97100
C341        C  0.07248025  0.62684840  0.83590696     1.04500
O342        O  0.12187471  0.66230046  0.90658783    -1.12600
O343        O  0.09959417  0.61851815  0.96551278    -0.75100
O344        O  0.05990560  0.61891336  0.93519465    -0.78600
O345        O  0.14109172  0.70803762  0.85044675    -0.79200
C346        C  0.07032946  0.60555042  0.95569761     0.96000
O347        O  0.08919614  0.68728829  0.95289784    -0.77200
O348        O  0.15639268  0.62959716  0.92837208    -0.82400
C349        C  0.20214287  0.70820498  0.91065770     0.98600
C350        C  0.15688661  0.61821341  0.89825426     1.04600
O351        O  0.18890563  0.69633560  0.88137469    -0.78000
C352        C  0.10848788  0.69662440  0.97849743     1.02900
Fe353      Fe  0.99418266  0.75892515  0.24167231     1.65800
Fe354      Fe  0.99905518  0.82198252  0.19478135     1.73200
Fe355      Fe  0.99581738  0.82262366  0.28421014     1.54400
O356        O  0.96337552  0.78087170  0.31126241    -0.81800
O357        O  0.03972426  0.86486202  0.20890268    -0.80100
O358        O  0.96042596  0.73991066  0.28123161    -0.84300
O359        O  0.03090525  0.77549740  0.27725002    -0.79100
O360        O  0.95781086  0.82823671  0.26787163    -0.80900
O361        O  0.02820609  0.80737128  0.16945930    -0.83700
C362        C  0.04401769  0.79943498  0.29808029     0.97100
C363        C  0.95263640  0.75083607  0.30741844     1.04500
O364        O  0.99647334  0.80112770  0.24026496    -1.12600
O365        O  0.95766245  0.78111971  0.17852623    -0.75100
O366        O  0.95707630  0.73963876  0.20637131    -0.78600
O367        O  0.03379807  0.81898242  0.30311195    -0.79200
C368        C  0.94478856  0.75120877  0.18568533     0.96000
O369        O  0.02769156  0.76942204  0.20266551    -0.77200
O370        O  0.97047742  0.84032943  0.21150488    -0.82400
C371        C  0.04474059  0.88082056  0.23728676     0.98600
C372        C  0.95477059  0.83942748  0.23877697     1.04600
O373        O  0.02888262  0.86824998  0.26533673    -0.78000
C374        C  0.03705794  0.78698234  0.17556690     1.02900
Fe375      Fe  0.90282076  0.57741334  0.57214528     1.65800
Fe376      Fe  0.83973126  0.51589767  0.52789398     1.73200
Fe377      Fe  0.84010241  0.51728610  0.61776224     1.54400
O378        O  0.88181805  0.52698771  0.64432464    -0.81800
O379        O  0.79603953  0.51237825  0.54153846    -0.80100
O380        O  0.92162734  0.56657979  0.61485702    -0.84300
O381        O  0.88464315  0.59963397  0.60279486    -0.79100
O382        O  0.83331920  0.47238088  0.60476640    -0.80900
O383        O  0.85232895  0.55840923  0.50019405    -0.83700
C384        C  0.86131027  0.58980442  0.62432668     0.97100
C385        C  0.91151935  0.54721479  0.64044346     1.04500
O386        O  0.86088259  0.53690815  0.57255483    -1.12600
O387        O  0.88123744  0.51641390  0.51218212    -0.75100
O388        O  0.92245767  0.55672477  0.54151836    -0.78600
O389        O  0.84407020  0.56040834  0.63368515    -0.79200
C390        C  0.91085106  0.53259891  0.52088293     0.96000
O391        O  0.89359198  0.59706797  0.52911566    -0.77200
O392        O  0.82364403  0.46976376  0.54721073    -0.82400
C393        C  0.78099108  0.50355155  0.57072889     0.98600
C394        C  0.82376763  0.45662332  0.57614042     1.04600
O395        O  0.79483951  0.50363197  0.59908852    -0.78000
C396        C  0.87447458  0.58771307  0.50335479     1.02900
C397        C  0.91632675  0.71472107  0.39712378    -0.27700
C398        C  0.90470668  0.68168468  0.39111807     0.01900
C399        C  0.90506505  0.67138082  0.35649521     0.30000
C400        C  0.91848520  0.69396038  0.32913841    -0.19500
C401        C  0.93224818  0.72736032  0.33541282    -0.28900
C402        C  0.93003915  0.73744774  0.36978669     0.44000
C403        C  0.89533089  0.65867507  0.42130474     0.05200
O404        O  0.89399653  0.63941936  0.34936173    -0.57400
H405        H  0.91952423  0.68525776  0.30312872     0.18100
O406        O  0.94237468  0.76952893  0.37743931    -0.64100
H407        H  0.91585151  0.72312511  0.42346677     0.16600
C408        C  0.91737867  0.66445265  0.44853511     0.28800
C409        C  0.90968922  0.64155553  0.47518099    -0.25000
C410        C  0.88000353  0.61223175  0.47566148    -0.24300
C411        C  0.85758562  0.60674126  0.44875323     0.40300
C412        C  0.86529805  0.62985358  0.42201122    -0.26800
O413        O  0.94747693  0.69149896  0.44807464    -0.58700
H414        H  0.92773064  0.64653262  0.49503316     0.15900
O415        O  0.82797901  0.57911477  0.44844001    -0.60100
H416        H  0.84788331  0.62504945  0.40145907     0.14400
H417        H  0.96444545  0.77716182  0.38634098     0.46200
H418        H  0.94670303  0.70621753  0.46591993     0.41600
H419        H  0.83016940  0.56439327  0.43175853     0.45100
H420        H  0.91283183  0.63651919  0.35279553     0.36500
C421        C  0.07400803  0.73934729  0.03325181    -0.27700
C422        C  0.09305231  0.74832208  0.06366762     0.01900
C423        C  0.11821231  0.74121708  0.06542253     0.30000
C424        C  0.12350531  0.72509109  0.03744763    -0.19500
C425        C  0.10409880  0.71574110  0.00710154    -0.28900
C426        C  0.07923339  0.72341263  0.00534659     0.44000
C427        C  0.08456408  0.76286084  0.09387669     0.05200
O428        O  0.13766991  0.74966883  0.09445326    -0.57400
H429        H  0.14265085  0.71954216  0.03979651     0.18100
O430        O  0.05943430  0.71522728  0.97660515    -0.64100
H431        H  0.05406259  0.74375989  0.03143303     0.16600
C432        C  0.07690391  0.78740060  0.08862181     0.28800
C433        C  0.06318464  0.79638400  0.11588922    -0.25000
C434        C  0.05719402  0.78167121  0.14916164    -0.24300
C435        C  0.06756680  0.75916814  0.15521220     0.40300
C436        C  0.08079753  0.74987265  0.12775580    -0.26800
O437        O  0.08170424  0.80206167  0.05649585    -0.58700
H438        H  0.05607131  0.81407259  0.11042757     0.15900
O439        O  0.06426264  0.74542189  0.18767521    -0.60100
H440        H  0.08653081  0.73109947  0.13268874     0.14400
H441        H  0.03993368  0.69449883  0.98287907     0.46200
H442        H  0.10438527  0.82000724  0.05679797     0.41600
H443        H  0.04472364  0.72370663  0.18598305     0.45100
H444        H  0.15530016  0.77205060  0.08988973     0.36500
C445        C  0.94923837  0.53992216  0.72582618    -0.27700
C446        C  0.98149196  0.56454553  0.72145690     0.01900
C447        C  0.99118383  0.58006279  0.68864418     0.30000
C448        C  0.96847094  0.57267961  0.66194698    -0.19500
C449        C  0.93558373  0.54990945  0.66715646    -0.28900
C450        C  0.92642755  0.53242094  0.69904593     0.44000
C451        C  0.00376444  0.57680285  0.75222451     0.05200
O452        O  0.02249264  0.60388559  0.68299834    -0.57400
H453        H  0.97657949  0.58609274  0.63758041     0.18100
O454        O  0.89501599  0.50918069  0.70522304    -0.64100
H455        H  0.94142632  0.52726334  0.75066434     0.16600
C456        C  0.99530961  0.58806954  0.78230212     0.28800
C457        C  0.01756354  0.60316101  0.80947924    -0.25000
C458        C  0.04884706  0.60763956  0.80763237    -0.24300
C459        C  0.05694088  0.59522875  0.77803854     0.40300
C460        C  0.03454288  0.58009354  0.75065918    -0.26800
O461        O  0.96613457  0.58670786  0.78420811    -0.58700
H462        H  0.01047442  0.61249662  0.83158956     0.15900
O463        O  0.08683831  0.59840192  0.77508177    -0.60100
H464        H  0.04145026  0.57142924  0.72780333     0.14400
H465        H  0.89312546  0.48879282  0.69646132     0.46200
H466        H  0.95278453  0.56845575  0.80022652     0.41600
H467        H  0.08452120  0.57837660  0.78543296     0.45100
H468        H  0.02362383  0.62413431  0.69102672     0.36500
C469        C  0.91328209  0.25178809  0.88044458    -0.27700
C470        C  0.90293548  0.23228283  0.91043060     0.01900
C471        C  0.90665759  0.20495652  0.91163053     0.30000
C472        C  0.92145480  0.19810573  0.88348460    -0.19500
C473        C  0.93328351  0.21853879  0.85394980    -0.28900
C474        C  0.92850398  0.24544295  0.85265184     0.44000
C475        C  0.89144479  0.24295352  0.94131912     0.05200
O476        O  0.89567263  0.18470740  0.94011493    -0.57400
H477        H  0.92442730  0.17721721  0.88529688     0.18100
O478        O  0.93920539  0.26633783  0.82470234    -0.64100
H479        H  0.91080864  0.27301898  0.87919852     0.16600
C480        C  0.91027636  0.25404348  0.97194501     0.28800
C481        C  0.90199112  0.26844592  0.99898168    -0.25000
C482        C  0.87514419  0.27281202  0.99616823    -0.24300
C483        C  0.85549171  0.26042017  0.96596646     0.40300
C484        C  0.86389757  0.24597624  0.93879883    -0.26800
O485        O  0.93794176  0.25256076  0.97493305    -0.58700
H486        H  0.91771807  0.27756290  0.02162802     0.15900
O487        O  0.82880150  0.26343637  0.96190419    -0.60100
H488        H  0.84929584  0.23782576  0.91523682     0.14400
H489        H  0.96061638  0.28434088  0.83191822     0.46200
H490        H  0.95500155  0.27255921  0.96364027     0.41600
H491        H  0.81098844  0.24398200  0.97322203     0.45100
H492        H  0.91520543  0.18955390  0.95366730     0.36500
C493        C  0.99891106  0.52145220  0.95553611    -0.27700
C494        C  0.00100987  0.51089455  0.98900802     0.01900
C495        C  0.02633677  0.53115814  0.01168920     0.30000
C496        C  0.04937609  0.56206196  0.00059119    -0.19500
C497        C  0.04697911  0.57287188  0.96717823    -0.28900
C498        C  0.02174836  0.55212503  0.94438529     0.44000
C499        C  0.97707781  0.47812757  0.99932662     0.05200
O500        O  0.02859685  0.52098834  0.04467110    -0.57400
H501        H  0.06868756  0.57773306  0.01823279     0.18100
O502        O  0.01942734  0.56139008  0.91091529    -0.64100
H503        H  0.97976045  0.50561540  0.93779341     0.16600
C504        C  0.94433485  0.46875479  0.00167962     0.28800
C505        C  0.92196830  0.43737523  0.01182592    -0.25000
C506        C  0.93207485  0.41528454  0.01952839    -0.24300
C507        C  0.96476631  0.42442832  0.01554111     0.40300
C508        C  0.98706593  0.45582616  0.00564355    -0.26800
O509        O  0.93437685  0.49062880  0.99606489    -0.58700
H510        H  0.89699621  0.43080677  0.01524874     0.15900
O511        O  0.97525420  0.40309385  0.02197204    -0.60100
H512        H  0.01223220  0.46286809  0.00298004     0.14400
H513        H  0.03335849  0.55623460  0.89626120     0.46200
H514        H  0.92496377  0.48584211  0.97211531     0.41600
H515        H  0.97269863  0.39173428  0.99933584     0.45100
H516        H  0.01395336  0.52493389  0.05957556     0.36500
C517        C  0.02475453  0.49727240  0.51812049    -0.27700
C518        C  0.99779346  0.48615128  0.49614579     0.01900
C519        C  0.99348113  0.46523396  0.46818691     0.30000
C520        C  0.01629004  0.45608368  0.46206770    -0.19500
C521        C  0.04387071  0.46775999  0.48332322    -0.28900
C522        C  0.04776741  0.48815863  0.51193739     0.44000
C523        C  0.97513932  0.49787684  0.50119091     0.05200
O524        O  0.96838854  0.45572474  0.44506791    -0.57400
H525        H  0.01297777  0.44097352  0.43939925     0.18100
O526        O  0.07424441  0.50000960  0.53335471    -0.64100
H527        H  0.02816114  0.51344200  0.53976238     0.16600
C528        C  0.94210685  0.47614102  0.50642969     0.28800
C529        C  0.92091500  0.48780619  0.50993536    -0.25000
C530        C  0.93246056  0.52113378  0.50942825    -0.24300
C531        C  0.96553086  0.54286215  0.50401304     0.40300
C532        C  0.98662158  0.53112720  0.49980951    -0.26800
O533        O  0.93051171  0.44358831  0.50929726    -0.58700
H534        H  0.89570485  0.47086028  0.51518698     0.15900
O535        O  0.97755950  0.57558623  0.50366520    -0.60100
H536        H  0.01202176  0.54799102  0.49556335     0.14400
H537        H  0.06807254  0.48378832  0.55232887     0.46200
H538        H  0.93295892  0.43996036  0.53447073     0.41600
H539        H  0.97396620  0.58055479  0.47938300     0.45100
H540        H  0.95405283  0.43224751  0.44910452     0.36500
C541        C  0.06954875  0.28723819  0.59948947    -0.27700
C542        C  0.08070386  0.32022485  0.60540412     0.01900
C543        C  0.07764420  0.33004423  0.63945394     0.30000
C544        C  0.06217193  0.30702027  0.66608661    -0.19500
C545        C  0.04925214  0.27374065  0.65973100    -0.28900
C546        C  0.05418277  0.26417761  0.62619154     0.44000
C547        C  0.09113405  0.34310360  0.57496088     0.05200
O548        O  0.08689041  0.36168413  0.64616264    -0.57400
H549        H  0.05903402  0.31533868  0.69149796     0.18100
O550        O  0.04237293  0.23222086  0.61837526    -0.64100
H551        H  0.07169478  0.27912165  0.57353636     0.16600
C552        C  0.11984991  0.37345329  0.57504511     0.28800
C553        C  0.12669347  0.39539566  0.54724840    -0.25000
C554        C  0.10561784  0.38739786  0.51846829    -0.24300
C555        C  0.07763400  0.35627724  0.51785898     0.40300
C556        C  0.07068240  0.33480843  0.54580657    -0.26800
O557        O  0.14133722  0.38203411  0.60220573    -0.58700
H558        H  0.14843430  0.41883949  0.54841306     0.15900
O559        O  0.05565739  0.34705451  0.49107965    -0.60100
H560        H  0.04840447  0.31177340  0.54516314     0.14400
H561        H  0.06021803  0.22819628  0.62378713     0.46200
H562        H  0.15585828  0.37383590  0.59541374     0.41600
H563        H  0.06111632  0.33433352  0.47477101     0.45100
H564        H  0.10571602  0.36973274  0.66207237     0.36500
C565        C  0.94971990  0.41600789  0.24565699    -0.27700
C566        C  0.98205433  0.42480695  0.23969868     0.01900
C567        C  0.99104451  0.42032381  0.20585577     0.30000
C568        C  0.96775450  0.40569285  0.17936828    -0.19500
C569        C  0.93494114  0.39514429  0.18563575    -0.28900
C570        C  0.92638123  0.40170679  0.21896532     0.44000
C571        C  0.00501403  0.43401263  0.26982014     0.05200
O572        O  0.02200611  0.42738056  0.19928667    -0.57400
H573        H  0.97539753  0.40127080  0.15417511     0.18100
O574        O  0.89502467  0.39255042  0.22657341    -0.64100
H575        H  0.94230632  0.41921300  0.27156619     0.16600
C576        C  0.03499937  0.46306823  0.27061343     0.28800
C577        C  0.05730496  0.46888742  0.29771079    -0.25000
C578        C  0.05022405  0.44607985  0.32460667    -0.24300
C579        C  0.01965936  0.41730986  0.32391111     0.40300
C580        C  0.99756320  0.41179144  0.29707736    -0.26800
O581        O  0.04288393  0.48580136  0.24485886    -0.58700
H582        H  0.08031678  0.49115871  0.29741248     0.15900
O583        O  0.01115405  0.39373312  0.34883123    -0.60100
H584        H  0.97479218  0.38922181  0.29683870     0.14400
H585        H  0.89285637  0.41140481  0.22019624     0.46200
H586        H  0.03411249  0.49947298  0.25314780     0.41600
H587        H  0.01757118  0.37867663  0.33878959     0.45100
H588        H  0.03185576  0.44750747  0.18520227     0.36500
C589        C  0.79723890  0.18947664  0.66159783    -0.27700
C590        C  0.80629969  0.16619121  0.66646948     0.01900
C591        C  0.78348910  0.13332290  0.66179224     0.30000
C592        C  0.75246775  0.12421102  0.65031570    -0.19500
C593        C  0.74378011  0.14758321  0.64357747    -0.28900
C594        C  0.76623959  0.18042621  0.65007298     0.44000
C595        C  0.83984256  0.17651765  0.67570327     0.05200
O596        O  0.79124582  0.11002703  0.66899830    -0.57400
H597        H  0.73534102  0.09883272  0.64604544     0.18100
O598        O  0.75873111  0.20400085  0.64361713    -0.64100
H599        H  0.81463749  0.21484542  0.66547213     0.16600
C600        C  0.85905407  0.16964621  0.65338625     0.28800
C601        C  0.89044663  0.17858811  0.66327097    -0.25000
C602        C  0.90327189  0.19497497  0.69504321    -0.24300
C603        C  0.88406852  0.20243751  0.71699288     0.40300
C604        C  0.85272379  0.19341063  0.70704869    -0.26800
O605        O  0.84731525  0.15416762  0.62189063    -0.58700
H606        H  0.90476078  0.17267828  0.64607680     0.15900
O607        O  0.89520523  0.21753681  0.74881862    -0.60100
H608        H  0.83809700  0.19885157  0.72432100     0.14400
H609        H  0.76480055  0.21022215  0.61871103     0.46200
H610        H  0.85173992  0.17155385  0.60486196     0.41600
H611        H  0.88980925  0.19990364  0.76587158     0.45100
H612        H  0.79248571  0.10116261  0.64582794     0.36500
C613        C  0.77640752  0.36800754  0.60144694    -0.27700
C614        C  0.78165732  0.35305206  0.57232217     0.01900
C615        C  0.80224604  0.37280857  0.54519701     0.30000
C616        C  0.81632270  0.40648207  0.54707737    -0.19500
C617        C  0.81105198  0.42128902  0.57624070    -0.28900
C618        C  0.79124696  0.40171293  0.60379806     0.44000
C619        C  0.76441746  0.31699038  0.56989388     0.05200
O620        O  0.80862004  0.35949254  0.51653906    -0.57400
H621        H  0.83143498  0.42111194  0.52558034     0.18100
O622        O  0.78435182  0.41511776  0.63199442    -0.64100
H623        H  0.75992960  0.35351162  0.62209766     0.16600
C624        C  0.76257992  0.29782691  0.59890928     0.28800
C625        C  0.74408023  0.26401916  0.59682011    -0.25000
C626        C  0.72759569  0.24854526  0.56586325    -0.24300
C627        C  0.73042613  0.26759929  0.53641568     0.40300
C628        C  0.74825957  0.30139740  0.53874913    -0.26800
O629        O  0.77939540  0.31191508  0.62916155    -0.58700
H630        H  0.74236795  0.24985178  0.61970718     0.15900
O631        O  0.71394920  0.25355403  0.50601454    -0.60100
H632        H  0.74856845  0.31544905  0.51635907     0.14400
H633        H  0.79956625  0.41700489  0.65066752     0.46200
H634        H  0.76286660  0.30780422  0.64727211     0.41600
H635        H  0.72968815  0.25179687  0.49061687     0.45100
H636        H  0.82773398  0.35796375  0.52321495     0.36500
C637        C  0.82555575  0.13307226  0.14400796    -0.27700
C638        C  0.82498629  0.15134105  0.17268766     0.01900
C639        C  0.81412432  0.13684958  0.20565315     0.30000
C640        C  0.80330951  0.10425578  0.20958368    -0.19500
C641        C  0.80377018  0.08583929  0.18109340    -0.28900
C642        C  0.81516975  0.10030620  0.14815995     0.44000
C643        C  0.83504963  0.18540220  0.16814988     0.05200
O644        O  0.81426786  0.15445631  0.23423776    -0.57400
H645        H  0.79527426  0.09346904  0.23534894     0.18100
O646        O  0.81586289  0.08267774  0.12005597    -0.64100
H647        H  0.83371459  0.14416453  0.11843010     0.16600
C648        C  0.86623934  0.20756396  0.15662786     0.28800
C649        C  0.87492670  0.23969467  0.15171634    -0.25000
C650        C  0.85249555  0.24995186  0.15739891    -0.24300
C651        C  0.82159365  0.22779121  0.17043256     0.40300
C652        C  0.81316668  0.19576045  0.17582032    -0.26800
O653        O  0.88839433  0.19805243  0.15048242    -0.58700
H654        H  0.89894589  0.25631121  0.14206528     0.08700
O655        O  0.79899512  0.23669860  0.17658898    -0.60100
H656        H  0.78908704  0.17867263  0.18496165     0.14400
H657        H  0.79395680  0.07250263  0.10975798     0.46200
H658        H  0.88902257  0.19604179  0.12456719     0.41600
H659        H  0.78617236  0.23132566  0.15465492     0.45100
H660        H  0.83632502  0.16421641  0.24406112     0.36500
C661        C  0.74677134  0.12508730  0.41682558    -0.27700
C662        C  0.75022655  0.09771456  0.42016437     0.01900
C663        C  0.74083739  0.08052141  0.45213311     0.30000
C664        C  0.72749784  0.08997183  0.47922287    -0.19500
C665        C  0.72225385  0.11620131  0.47528377    -0.28900
C666        C  0.73282223  0.13424811  0.44381972     0.44000
C667        C  0.76133088  0.08571297  0.38972305     0.05200
O668        O  0.74305828  0.05333749  0.45669502    -0.57400
H669        H  0.71973704  0.07545827  0.50288014     0.18100
O670        O  0.72871470  0.16021611  0.43852376    -0.64100
H671        H  0.75435933  0.13914855  0.39286009     0.16600
C672        C  0.74706884  0.08111753  0.35626789     0.28800
C673        C  0.75468236  0.06600724  0.32930364    -0.25000
C674        C  0.77645955  0.05487335  0.33465992    -0.24300
C675        C  0.79178771  0.06071921  0.36772284     0.40300
C676        C  0.78443812  0.07623579  0.39461331    -0.26800
O677        O  0.72375970  0.08904773  0.35034201    -0.58700
H678        H  0.74246857  0.06203603  0.30432177     0.15900
O679        O  0.81324187  0.05053125  0.37458340    -0.60100
H680        H  0.79622450  0.08001326  0.41983802     0.14400
H681        H  0.74840841  0.17901118  0.44819088     0.46200
H682        H  0.73423294  0.10868182  0.33546067     0.41600
H683        H  0.80018496  0.02879531  0.38517427     0.45100
H684        H  0.72264852  0.03533736  0.44722127     0.36500
C685        C  0.85643937  0.89587783  0.20140712    -0.27700
C686        C  0.87232165  0.89510020  0.23205215     0.01900
C687        C  0.87205326  0.91233694  0.26181100     0.30000
C688        C  0.85655594  0.93032226  0.26061302    -0.19500
C689        C  0.84108809  0.93190229  0.22985890    -0.28900
C690        C  0.84085341  0.91404598  0.20012365     0.44000
C691        C  0.89145452  0.87862546  0.23219391     0.05200
O692        O  0.88894995  0.91368019  0.29141578    -0.57400
H693        H  0.85772165  0.94399144  0.28384323     0.18100
O694        O  0.82567823  0.91420134  0.16972128    -0.64100
H695        H  0.85658058  0.88275369  0.17823147     0.16600
C696        C  0.88548739  0.85430354  0.25683162     0.28800
C697        C  0.90614367  0.84164955  0.25883954    -0.25000
C698        C  0.93274906  0.85263216  0.23616132    -0.24300
C699        C  0.93841369  0.87681364  0.21123360     0.40300
C700        C  0.91771629  0.88932272  0.20926051    -0.26800
O701        O  0.85970300  0.84297697  0.27931881    -0.58700
H702        H  0.90124888  0.82310907  0.27808535     0.15900
O703        O  0.96472120  0.88924602  0.18935762    -0.60100
H704        H  0.92289437  0.90835684  0.19056057     0.14400
H705        H  0.84290005  0.93076693  0.15460256     0.46200
H706        H  0.84113929  0.82628036  0.26575909     0.41600
H707        H  0.98248230  0.90688086  0.20297472     0.45100
H708        H  0.87240983  0.90060076  0.30927700     0.36500
C709        C  0.61691053  0.87534988  0.05637452    -0.27700
C710        C  0.64450395  0.90634966  0.05786280     0.01900
C711        C  0.64780692  0.92960292  0.03314994     0.30000
C712        C  0.62430596  0.92179537  0.00746501    -0.19500
C713        C  0.59655273  0.89089349  0.00570422    -0.28900
C714        C  0.59307075  0.86751030  0.03057782     0.44000
C715        C  0.66912975  0.91527795  0.08605565     0.05200
O716        O  0.67363954  0.96048526  0.03436308    -0.57400
H717        H  0.62773698  0.94053784  0.98915746     0.18100
O718        O  0.56655257  0.83706979  0.03012925    -0.64100
H719        H  0.61386365  0.85714001  0.07524621     0.16600
C720        C  0.66038891  0.91222283  0.12178550     0.28800
C721        C  0.68422233  0.92518065  0.14782119    -0.25000
C722        C  0.71724315  0.94186359  0.13906660    -0.24300
C723        C  0.72595049  0.94343257  0.10332245     0.40300
C724        C  0.70201986  0.93016876  0.07728840    -0.26800
O725        O  0.62864626  0.89827240  0.13152885    -0.58700
H726        H  0.67670513  0.92340776  0.17500204     0.15900
O727        O  0.75765744  0.96001604  0.09318410    -0.60100
H728        H  0.70924020  0.93267909  0.04993286     0.14400
H729        H  0.57296750  0.82397848  0.01566799     0.46200
H730        H  0.62373772  0.91603279  0.13104209     0.41600
H731        H  0.76421959  0.94348018  0.09157862     0.45100
H732        H  0.66716468  0.97226813  0.05086360     0.36500
C733        C  0.57792931  0.00129397  0.68714169    -0.27700
C734        C  0.56934051  0.00996080  0.71887802     0.01900
C735        C  0.57477579  0.04176811  0.72207011     0.30000
C736        C  0.59014143  0.06447220  0.69486337    -0.19500
C737        C  0.60010993  0.05613743  0.66365864    -0.28900
C738        C  0.59279422  0.02364585  0.65982349     0.44000
C739        C  0.55777494  0.98662118  0.74921962     0.05200
O740        O  0.56578236  0.05121472  0.75201122    -0.57400
H741        H  0.59502000  0.08892868  0.69868373     0.18100
O742        O  0.60060207  0.01332449  0.62966413    -0.64100
H743        H  0.57450426  0.97732081  0.68389934     0.16600
C744        C  0.53432807  0.95355724  0.74516678     0.28800
C745        C  0.52701142  0.93167468  0.77323948    -0.25000
C746        C  0.54284060  0.94196908  0.80581318    -0.24300
C747        C  0.56513766  0.97543290  0.81018590     0.40300
C748        C  0.57252995  0.99704396  0.78218465    -0.26800
O749        O  0.51802685  0.94248262  0.71400713    -0.58700
H750        H  0.50950042  0.90640233  0.76908167     0.15900
O751        O  0.58081680  0.98745559  0.84149365    -0.60100
H752        H  0.59090019  0.02207623  0.78607282     0.14400
H753        H  0.62105113  0.01385276  0.63502447     0.46200
H754        H  0.52546407  0.92830110  0.70377342     0.41600
H755        H  0.56643952  0.99252742  0.85542681     0.45100
H756        H  0.54257470  0.04367408  0.74886158     0.36500
C757        C  0.35868144  0.80208530  0.93373889    -0.27700
C758        C  0.34108027  0.79190763  0.90241443     0.01900
C759        C  0.35808436  0.79973268  0.87019587     0.30000
C760        C  0.39195706  0.81501551  0.86993890    -0.19500
C761        C  0.40951867  0.82298418  0.90149471    -0.28900
C762        C  0.39235715  0.81746286  0.93359393     0.44000
C763        C  0.30522215  0.77119179  0.90415408     0.05200
O764        O  0.34175250  0.79305978  0.83889272    -0.57400
H765        H  0.40434836  0.81972403  0.84492540     0.18100
O766        O  0.40809515  0.82656816  0.96526237    -0.64100
H767        H  0.34620860  0.79684835  0.95875818     0.16600
C768        C  0.28936045  0.74134214  0.88632050     0.28800
C769        C  0.25594726  0.72166133  0.88875098    -0.25000
C770        C  0.23752530  0.73020533  0.91012616    -0.24300
C771        C  0.25327024  0.75922408  0.92938245     0.40300
C772        C  0.28683529  0.77968382  0.92598863    -0.26800
O773        O  0.30636515  0.73051063  0.86734330    -0.58700
H774        H  0.24438047  0.69900499  0.87441978     0.15900
O775        O  0.23602839  0.76840633  0.95037592    -0.60100
H776        H  0.29854509  0.80222792  0.94046956     0.14400
H777        H  0.40602558  0.80655726  0.97537638     0.46200
H778        H  0.31298322  0.71955925  0.88467849     0.41600
H779        H  0.23652247  0.76017859  0.97411761     0.45100
H780        H  0.34674555  0.77806498  0.82604544     0.36500
C781        C  0.18462434  0.81872392  0.32921302    -0.27700
C782        C  0.16763141  0.82986207  0.34923888     0.01900
C783        C  0.18207298  0.84954140  0.37867558     0.30000
C784        C  0.21373062  0.85899589  0.38696730    -0.19500
C785        C  0.23140754  0.84885073  0.36642567    -0.28900
C786        C  0.21637469  0.82800245  0.33765947     0.44000
C787        C  0.13517393  0.82174441  0.33855466     0.05200
O788        O  0.16489340  0.85848475  0.40022713    -0.57400
H789        H  0.22421488  0.87403107  0.41000803     0.18100
O790        O  0.23225694  0.81645929  0.31776927    -0.64100
H791        H  0.17341242  0.80326799  0.30661706     0.16600
C792        C  0.12812100  0.84637833  0.33201823     0.28800
C793        C  0.09742682  0.83842100  0.32125010    -0.25000
C794        C  0.07388304  0.80613816  0.31532569    -0.24300
C795        C  0.08083658  0.78139689  0.32210265     0.40300
C796        C  0.11141522  0.78934985  0.33378624    -0.26800
O797        O  0.15144310  0.87834069  0.33458901    -0.58700
H798        H  0.09263921  0.85771613  0.31553495     0.15900
O799        O  0.05824327  0.74954110  0.31666718    -0.60100
H800        H  0.11674397  0.77028056  0.33874801     0.14400
H801        H  0.24191767  0.83187592  0.29799504     0.46200
H802        H  0.16252791  0.88388013  0.31146780     0.41600
H803        H  0.04589913  0.74224565  0.33896834     0.45100
H804        H  0.17569375  0.88235170  0.39853748     0.36500
C805        C  0.46234788  0.99498703  0.46315776    -0.27700
C806        C  0.47958329  0.98688728  0.48648370     0.01900
C807        C  0.46341176  0.95765996  0.50525702     0.30000
C808        C  0.43039680  0.93677483  0.49993059    -0.19500
C809        C  0.41314417  0.94475753  0.47616989    -0.28900
C810        C  0.42954665  0.97453976  0.45806097     0.44000
C811        C  0.51384146  0.01069787  0.49245420     0.05200
O812        O  0.47928851  0.95008605  0.52997315    -0.57400
H813        H  0.41843274  0.91418487  0.51423587     0.18100
O814        O  0.41393014  0.98417830  0.43528169    -0.64100
H815        H  0.47445523  0.01750411  0.44869154     0.16600
C816        C  0.53808028  0.00243786  0.49029418     0.28800
C817        C  0.57009849  0.02586208  0.49709486    -0.25000
C818        C  0.57837668  0.05780829  0.50460729    -0.24300
C819        C  0.55427023  0.06629361  0.50504383     0.40300
C820        C  0.52235725  0.04277812  0.49930288    -0.26800
O821        O  0.53082491  0.97173780  0.48149856    -0.58700
H822        H  0.58846071  0.01907847  0.49667505     0.15900
O823        O  0.56137484  0.09719658  0.51270748    -0.60100
H824        H  0.50401908  0.04956066  0.50092601     0.14400
H825        H  0.41817691  0.97858354  0.41149937     0.46200
H826        H  0.52953254  0.97087532  0.45546795     0.41600
H827        H  0.55910335  0.09771323  0.53859631     0.45100
H828        H  0.47948944  0.93084793  0.52062969     0.36500
C829        C  0.19595794  0.63270261  0.39875567    -0.27700
C830        C  0.19514734  0.64658953  0.43105171     0.01900
C831        C  0.17832842  0.62613006  0.45945951     0.30000
C832        C  0.16432589  0.59254610  0.45582634    -0.19500
C833        C  0.16649012  0.57873636  0.42398915    -0.28900
C834        C  0.18165886  0.59917246  0.39498746     0.44000
C835        C  0.21301900  0.68241626  0.43469212     0.05200
O836        O  0.17474115  0.63874136  0.49046755    -0.57400
H837        H  0.15213959  0.57728041  0.47824160     0.18100
O838        O  0.18465772  0.58691091  0.36350150    -0.64100
H839        H  0.20873282  0.64802655  0.37657910     0.16600
C840        C  0.23663602  0.69806713  0.46094205     0.28800
C841        C  0.25565214  0.73187670  0.46134370    -0.25000
C842        C  0.25207172  0.75059252  0.43542685    -0.24300
C843        C  0.22782976  0.73499733  0.40979227     0.40300
C844        C  0.20853878  0.70127247  0.40965258    -0.26800
O845        O  0.24340611  0.68045889  0.48418586    -0.58700
H846        H  0.27464892  0.74332962  0.48071494     0.15900
O847        O  0.22346028  0.75238719  0.38403243    -0.60100
H848        H  0.19054242  0.68970022  0.38927928     0.14400
H849        H  0.16627684  0.58417890  0.34910189     0.46200
H850        H  0.23816151  0.68542027  0.50778413     0.41600
H851        H  0.20932980  0.75963895  0.39474301     0.45100
H852        H  0.18528678  0.63252863  0.50873111     0.36500
C853        C  0.20609706  0.92298950  0.60503828    -0.27700
C854        C  0.23219069  0.91774757  0.60949591     0.01900
C855        C  0.24943535  0.92747434  0.64130280     0.30000
C856        C  0.24066210  0.94209757  0.66770719    -0.19500
C857        C  0.21492953  0.94798145  0.66324799    -0.28900
C858        C  0.19753570  0.93805788  0.63135339     0.44000
C859        C  0.24341440  0.90550239  0.57956635     0.05200
O860        O  0.27663460  0.92533073  0.64567239    -0.57400
H861        H  0.25508930  0.94995117  0.69139648     0.18100
O862        O  0.17242007  0.94327864  0.62527943    -0.64100
H863        H  0.19270809  0.91601701  0.58061427     0.16600
C864        C  0.24909230  0.87946150  0.58317850     0.28800
C865        C  0.26267765  0.87088791  0.55518030    -0.25000
C866        C  0.27092791  0.88798201  0.52323946    -0.24300
C867        C  0.26339297  0.91288576  0.51925164     0.40300
C868        C  0.25007239  0.92141315  0.54715174    -0.26800
O869        O  0.24064003  0.86176640  0.61365331    -0.58700
H870        H  0.26743519  0.85128470  0.55886938     0.15900
O871        O  0.26982346  0.92997637  0.48851679    -0.60100
H872        H  0.24578381  0.94136378  0.54368383     0.14400
H873        H  0.18186916  0.96368362  0.61170310     0.46200
H874        H  0.26097948  0.86449110  0.62341874     0.41600
H875        H  0.24988347  0.91816764  0.47434881     0.45100
H876        H  0.27162821  0.90982367  0.66519264     0.36500
C877        C  0.13258341  0.80109060  0.87284092    -0.27700
C878        C  0.15172371  0.81750248  0.84388951     0.01900
C879        C  0.16096708  0.80116623  0.81990916     0.30000
C880        C  0.15110294  0.76866814  0.82534709    -0.19500
C881        C  0.13163683  0.75210887  0.85425528    -0.28900
C882        C  0.12247284  0.76873971  0.87819366     0.44000
C883        C  0.16202923  0.85177039  0.83932173     0.05200
O884        O  0.17963566  0.81674930  0.79117384    -0.57400
H885        H  0.15862203  0.75642709  0.80696209     0.18100
O886        O  0.10443626  0.75398470  0.90761278    -0.64100
H887        H  0.12594882  0.81360951  0.89186829     0.16600
C888        C  0.13930085  0.86206652  0.83904848     0.28800
C889        C  0.14945835  0.89445702  0.83299972    -0.25000
C890        C  0.18204467  0.91673518  0.82676909    -0.24300
C891        C  0.20497009  0.90670534  0.82905893     0.40300
C892        C  0.19484328  0.87437220  0.83539469    -0.26800
O893        O  0.10695172  0.84025557  0.84201300    -0.58700
H894        H  0.13154911  0.90173377  0.83110602     0.15900
O895        O  0.23716539  0.92804234  0.82397321    -0.60100
H896        H  0.21259163  0.86679872  0.83663743     0.14400
H897        H  0.12031048  0.75775717  0.92631328     0.46200
H898        H  0.10065054  0.84413073  0.86558314     0.41600
H899        H  0.24546185  0.93789942  0.84736044     0.45100
H900        H  0.16426919  0.81522756  0.77288058     0.36500
C901        C  0.07295524  0.11576742  0.72590379    -0.27700
C902        C  0.09273707  0.12178172  0.75546231     0.01900
C903        C  0.09340013  0.14292778  0.78169652     0.30000
C904        C  0.07355874  0.15651111  0.77882188    -0.19500
C905        C  0.05298054  0.14966651  0.74983670    -0.28900
C906        C  0.05328482  0.12955784  0.72291007     0.44000
C907        C  0.11166117  0.10500450  0.75895140     0.05200
O908        O  0.11402698  0.15111796  0.80972058    -0.57400
H909        H  0.07403457  0.17225267  0.79960736     0.18100
O910        O  0.03279977  0.12135917  0.69480776    -0.64100
H911        H  0.07199338  0.09946127  0.70552910     0.16600
C912        C  0.10786958  0.08550488  0.78837482     0.28800
C913        C  0.12431496  0.06826906  0.79002029    -0.25000
C914        C  0.14411889  0.06928286  0.76218084    -0.24300
C915        C  0.14841792  0.08933144  0.73307936     0.40300
C916        C  0.13226624  0.10686623  0.73164229    -0.26800
O917        O  0.08693315  0.08183199  0.81494397    -0.58700
H918        H  0.12016998  0.05269021  0.81238137     0.15900
O919        O  0.16789793  0.09155274  0.70551752    -0.60100
H920        H  0.13552999  0.12170707  0.70883515     0.14400
H921        H  0.04588891  0.13639881  0.67576566     0.46200
H922        H  0.06547686  0.06465208  0.80673093     0.41600
H923        H  0.18997662  0.10807762  0.71280482     0.45100
H924        H  0.10008481  0.14202998  0.83076196     0.36500
C925        C  0.48196392  0.96231779  0.00574718    -0.27700
C926        C  0.48678289  0.98690195  0.98229510     0.01900
C927        C  0.50145471  0.98942979  0.94963568     0.30000
C928        C  0.51199540  0.96809660  0.94109092    -0.19500
C929        C  0.50779674  0.94370056  0.96463641    -0.28900
C930        C  0.49227797  0.94063277  0.99706705     0.44000
C931        C  0.47806747  0.01096286  0.99274768     0.05200
O932        O  0.50571015  0.01280259  0.92595895    -0.57400
H933        H  0.52317473  0.97049203  0.91563419     0.18100
O934        O  0.48749356  0.91698846  0.02059021    -0.64100
H935        H  0.47086284  0.96042508  0.03113490     0.16600
C936        C  0.44632102  0.00166098  0.00215071     0.28800
C937        C  0.43909191  0.02495645  0.01351378    -0.25000
C938        C  0.46338445  0.05758510  0.01613835    -0.24300
C939        C  0.49510044  0.06688185  0.00581653     0.40300
C940        C  0.50214489  0.04357805  0.99405365    -0.26800
O941        O  0.42222262  0.96997699  0.99979327    -0.58700
H942        H  0.41451960  0.01729872  0.02109757     0.15900
O943        O  0.51965728  0.09833795  0.00845431    -0.60100
H944        H  0.52674564  0.05083724  0.98700117     0.14400
H945        H  0.50726090  0.92657344  0.03518602     0.46200
H946        H  0.41823390  0.96177300  0.02427884     0.41600
H947        H  0.52881791  0.10025497  0.03226900     0.45100
H948        H  0.48548152  0.00316804  0.91215029     0.36500
C949        C  0.27706746  0.08123580  0.91952014    -0.27700
C950        C  0.30994937  0.09186869  0.91418301     0.01900
C951        C  0.32000733  0.08862675  0.88035729     0.30000
C952        C  0.29734375  0.07354715  0.85335724    -0.19500
C953        C  0.26413616  0.06129778  0.85901714    -0.28900
C954        C  0.25435632  0.06641488  0.89232140     0.44000
C955        C  0.33255578  0.10185288  0.94483655     0.05200
O956        O  0.35151681  0.09734253  0.87423518    -0.57400
H957        H  0.30586386  0.07026285  0.82814831     0.18100
O958        O  0.22246721  0.05519780  0.89942233    -0.64100
H959        H  0.26876332  0.08342385  0.94533724     0.16600
C960        C  0.36283271  0.13063780  0.94513707     0.28800
C961        C  0.38512994  0.13660265  0.97225967    -0.25000
C962        C  0.37762723  0.11448746  0.99997744    -0.24300
C963        C  0.34646996  0.08652376  0.00041660     0.40300
C964        C  0.32450897  0.08062176  0.97327289    -0.26800
O965        O  0.37106686  0.15294841  0.91883807    -0.58700
H966        H  0.40853477  0.15838470  0.97126906     0.15900
O967        O  0.33739225  0.06389462  0.02654706    -0.60100
H968        H  0.30143638  0.05838826  0.97369912     0.14400
H969        H  0.21924159  0.07368759  0.89459227     0.46200
H970        H  0.36245491  0.16693024  0.92648342     0.41600
H971        H  0.34281352  0.04777548  0.01750423     0.45100
H972        H  0.36030563  0.11679090  0.85910976     0.36500
C973        C  0.44456323  0.03234407  0.24138870    -0.27700
C974        C  0.41880969  0.00073124  0.23561831     0.01900
C975        C  0.40355760  0.99320686  0.20258961     0.30000
C976        C  0.41338308  0.01711063  0.17665706    -0.19500
C977        C  0.43812330  0.04920725  0.18285301    -0.28900
C978        C  0.45418275  0.05641871  0.21553628     0.44000
C979        C  0.40531739  0.97743811  0.26559889     0.05200
O980        O  0.37691747  0.96347658  0.19655547    -0.57400
H981        H  0.40015724  0.01064410  0.15213868     0.18100
O982        O  0.47815322  0.08720589  0.22334640    -0.64100
H983        H  0.45656088  0.03874082  0.26666039     0.16600
C984        C  0.39802902  0.94500517  0.26310967     0.28800
C985        C  0.38237817  0.92334815  0.29104604    -0.25000
C986        C  0.37401467  0.93352254  0.32205446    -0.24300
C987        C  0.38275098  0.96646870  0.32486869     0.40300
C988        C  0.39811919  0.98779435  0.29701454    -0.26800
O989        O  0.40595230  0.93414269  0.23349216    -0.58700
H990        H  0.37631688  0.89842790  0.28813819     0.15900
O991        O  0.37649438  0.97839515  0.35482874    -0.60100
H992        H  0.40355462  0.01255236  0.29969970     0.14400
H993        H  0.49843735  0.08804450  0.21627276     0.46200
H994        H  0.42790071  0.93791557  0.23796523     0.41600
H995        H  0.35660955  0.97905118  0.34968692     0.45100
H996        H  0.38361459  0.95311113  0.17842430     0.36500
C997        C  0.69273144  0.22193853  0.06254206    -0.27700
C998        C  0.67472852  0.22190638  0.09179933     0.01900
C999        C  0.69138432  0.24100573  0.12114502     0.30000
C1000       C  0.72506196  0.26023307  0.12058330    -0.19500
C1001       C  0.74313119  0.26157256  0.09072965    -0.28900
C1002       C  0.72649777  0.24162501  0.06170458     0.44000
C1003       C  0.63868150  0.20393869  0.09068680     0.05200
O1004       O  0.67489129  0.24221179  0.15005605    -0.57400
H1005       H  0.73690430  0.27524967  0.14327365     0.18100
O1006       O  0.74288904  0.24102040  0.03240052    -0.64100
H1007       H  0.68048155  0.20707991  0.03988009     0.16600
C1008       C  0.62225352  0.20904660  0.06311276     0.28800
C1009       C  0.58861601  0.19447717  0.06389250    -0.25000
C1010       C  0.57031587  0.17482756  0.09220851    -0.24300
C1011       C  0.58669785  0.16873812  0.11924084     0.40300
C1012       C  0.62046948  0.18324874  0.11832276    -0.26800
O1013       O  0.63893974  0.22939403  0.03586285    -0.58700
H1014       H  0.57698960  0.19970431  0.04265185     0.15900
O1015       O  0.57017813  0.14928916  0.14713279    -0.60100
H1016       H  0.63254848  0.17866624  0.13960945     0.14400
H1017       H  0.74083897  0.25537988  0.01519056     0.46200
H1018       H  0.64417440  0.25118348  0.04398196     0.41600
H1019       H  0.56470240  0.12722970  0.13981111     0.45100
H1020       H  0.67003843  0.25959232  0.14497168     0.36500
C1021       C  0.32558489  0.12078245  0.16991553    -0.27700
C1022       C  0.33534830  0.15333059  0.17503341     0.01900
C1023       C  0.36834074  0.17661987  0.17624943     0.30000
C1024       C  0.39117943  0.16740074  0.17048671    -0.19500
C1025       C  0.38149165  0.13511002  0.16293462    -0.28900
C1026       C  0.34840145  0.11149260  0.16405426     0.44000
C1027       C  0.31115542  0.16307070  0.17945715     0.05200
O1028       O  0.37843904  0.20865766  0.18158155    -0.57400
H1029       H  0.41639702  0.18595238  0.16965354     0.18100
O1030       O  0.33799431  0.07948339  0.15807411    -0.64100
H1031       H  0.30021262  0.10263892  0.16997137     0.16600
C1032       C  0.28836546  0.15739689  0.15308599     0.28800
C1033       C  0.26725157  0.16925546  0.15726204    -0.25000
C1034       C  0.26888094  0.18675263  0.18752978    -0.24300
C1035       C  0.29092783  0.19107126  0.21445654     0.40300
C1036       C  0.31187936  0.17941207  0.21013182    -0.26800
O1037       O  0.28758716  0.14162152  0.12263551    -0.58700
H1038       H  0.24999466  0.16518479  0.13676444     0.15900
O1039       O  0.29183029  0.20614340  0.24552950    -0.60100
H1040       H  0.32886163  0.18317047  0.23086533     0.14400
H1041       H  0.33950038  0.07081392  0.18118030     0.46200
H1042       H  0.26940210  0.11923630  0.12565785     0.41600
H1043       H  0.27645976  0.18866430  0.26129446     0.45100
H1044       H  0.37834887  0.21731743  0.15796526     0.36500
C1045       C  0.18242037  0.38318595  0.33641931    -0.27700
C1046       C  0.15936933  0.35032535  0.33311042     0.01900
C1047       C  0.12664168  0.33969622  0.33887593     0.30000
C1048       C  0.11741370  0.36174711  0.34891010    -0.19500
C1049       C  0.14045688  0.39456369  0.35288178    -0.28900
C1050       C  0.17314130  0.40542258  0.34586277     0.44000
C1051       C  0.16957937  0.32731514  0.32308585     0.05200
O1052       O  0.10355561  0.30776889  0.33512594    -0.57400
H1053       H  0.09216210  0.35306643  0.35408601     0.18100
O1054       O  0.19638877  0.43718284  0.35051722    -0.64100
H1055       H  0.20774377  0.39151009  0.33235942     0.16600
C1056       C  0.18754629  0.33217297  0.29228508     0.28800
C1057       C  0.19576163  0.30940380  0.28217172    -0.25000
C1058       C  0.18626125  0.28150844  0.30239864    -0.24300
C1059       C  0.16859631  0.27689118  0.33360707     0.40300
C1060       C  0.16049935  0.29987461  0.34381328    -0.26800
O1061       O  0.19546733  0.35810717  0.27082407    -0.58700
H1062       H  0.20888464  0.31330671  0.25775013     0.15900
O1063       O  0.15874854  0.24996839  0.35401998    -0.60100
H1064       H  0.14687529  0.29617523  0.36782214     0.14400
H1065       H  0.20034064  0.44694592  0.32676313     0.46200
H1066       H  0.21891848  0.37287495  0.27417252     0.41600
H1067       H  0.17667530  0.25576540  0.37070903     0.45100
H1068       H  0.09761344  0.30510243  0.30989051     0.36500
C1069       C  0.10555959  0.96520653  0.26889909    -0.27700
C1070       C  0.10379347  0.98431033  0.24204057     0.01900
C1071       C  0.08472551  0.96883529  0.21219354     0.30000
C1072       C  0.06747780  0.93504718  0.20989757    -0.19500
C1073       C  0.06808643  0.91599783  0.23747009    -0.28900
C1074       C  0.08777676  0.93137344  0.26687649     0.44000
C1075       C  0.12116425  0.02020687  0.24550301     0.05200
O1076       O  0.08160154  0.98647047  0.18577530    -0.57400
H1077       H  0.05204231  0.92370232  0.18737317     0.18100
O1078       O  0.08944327  0.91353262  0.29402377    -0.64100
H1079       H  0.12052332  0.97654180  0.29172091     0.16600
C1080       C  0.11723119  0.03544115  0.27539427     0.28800
C1081       C  0.13162317  0.06923864  0.27654129    -0.25000
C1082       C  0.14987746  0.08835379  0.24805570    -0.24300
C1083       C  0.15496412  0.07314786  0.21889596     0.40300
C1084       C  0.14078070  0.03950382  0.21786560    -0.26800
O1085       O  0.09742897  0.01740756  0.30244427    -0.58700
H1086       H  0.12710127  0.08034723  0.29900941     0.15900
O1087       O  0.17316513  0.09087907  0.19077182    -0.60100
H1088       H  0.14466568  0.02835793  0.19499478     0.14400
H1089       H  0.10811260  0.91085732  0.28831757     0.46200
H1090       H  0.11209495  0.01948716  0.32185030     0.41600
H1091       H  0.19581651  0.09867775  0.19762322     0.45100
H1092       H  0.06316579  0.98907710  0.19287779     0.36500
C1093       C  0.02961855  0.14335240  0.20869841    -0.27700
C1094       C  0.01193898  0.12861894  0.23940638     0.01900
C1095       C  0.02880824  0.12967551  0.27004950     0.30000
C1096       C  0.06246784  0.14418777  0.26931445    -0.19500
C1097       C  0.08021585  0.15781074  0.23824190    -0.28900
C1098       C  0.06334174  0.15795380  0.20794864     0.44000
C1099       C  0.97602038  0.10914722  0.23804437     0.05200
O1100       O  0.01244295  0.11408979  0.30001643    -0.57400
H1101       H  0.07449519  0.14340110  0.29300768     0.18100
O1102       O  0.07928969  0.17122976  0.17706551    -0.64100
H1103       H  0.01709061  0.14282387  0.18484946     0.16600
C1104       C  0.95622448  0.11305205  0.26272689     0.28800
C1105       C  0.92267282  0.09198040  0.26248267    -0.25000
C1106       C  0.90809790  0.06733730  0.23714825    -0.24300
C1107       C  0.92794829  0.06448516  0.21151290     0.40300
C1108       C  0.96138975  0.08504717  0.21231797    -0.26800
O1109       O  0.96937163  0.13737491  0.28719265    -0.58700
H1110       H  0.90801467  0.09504406  0.28207157     0.15900
O1111       O  0.91519959  0.04044784  0.18665562    -0.60100
H1112       H  0.97609635  0.08148217  0.19321594     0.14400
H1113       H  0.08516999  0.19423119  0.17818247     0.46200
H1114       H  0.97124563  0.15656107  0.27514152     0.41600
H1115       H  0.91335350  0.05091324  0.16504163     0.45100
H1116       H  0.01726510  0.13143158  0.31736332     0.36500
C1117       C  0.31942664  0.14185502  0.71414211    -0.27700
C1118       C  0.31827506  0.15257843  0.68038484     0.01900
C1119       C  0.29434115  0.13184971  0.65653771     0.30000
C1120       C  0.27136576  0.10071318  0.66704670    -0.19500
C1121       C  0.27240694  0.09005253  0.70096291    -0.28900
C1122       C  0.29678076  0.11077020  0.72455513     0.44000
C1123       C  0.34205983  0.18570896  0.67063708     0.05200
O1124       O  0.29410228  0.14149311  0.62264668    -0.57400
H1125       H  0.25298604  0.08481751  0.64861739     0.18100
O1126       O  0.29763573  0.10147490  0.75845180    -0.64100
H1127       H  0.33764512  0.15785343  0.73267152     0.16600
C1128       C  0.33208679  0.20715844  0.65958108     0.28800
C1129       C  0.35487148  0.23786181  0.64830760    -0.25000
C1130       C  0.38784858  0.24783669  0.64839036    -0.24300
C1131       C  0.39794965  0.22706203  0.66201010     0.40300
C1132       C  0.37496307  0.19606001  0.67284651    -0.26800
O1133       O  0.30009301  0.19815999  0.65921979    -0.58700
H1134       H  0.34655175  0.25368605  0.63882112     0.15900
O1135       O  0.42989318  0.23594622  0.66287402    -0.60100
H1136       H  0.38276511  0.17973037  0.68205236     0.14400
H1137       H  0.31434822  0.09513371  0.75845027     0.46200
H1138       H  0.29550191  0.20307303  0.68316226     0.41600
H1139       H  0.43722862  0.24454330  0.68691304     0.45100
H1140       H  0.27436866  0.14307960  0.62070470     0.36500
C1141       C  0.32344270  0.26137205  0.36392040    -0.27700
C1142       C  0.31730975  0.23883990  0.39055142     0.01900
C1143       C  0.28818677  0.20890828  0.38937252     0.30000
C1144       C  0.26546376  0.20244359  0.36263566    -0.19500
C1145       C  0.27130818  0.22536820  0.33633474    -0.28900
C1146       C  0.30105066  0.25499668  0.33716144     0.44000
C1147       C  0.34025663  0.24826262  0.42075216     0.05200
O1148       O  0.28153265  0.18589481  0.41446140    -0.57400
H1149       H  0.24311994  0.17948844  0.36267350     0.18100
O1150       O  0.30835422  0.27855272  0.31251501    -0.64100
H1151       H  0.34527804  0.28476622  0.36455647     0.16600
C1152       C  0.37373514  0.26201384  0.41549061     0.28800
C1153       C  0.39511776  0.27469359  0.44408427    -0.25000
C1154       C  0.38387250  0.27445425  0.47838491    -0.24300
C1155       C  0.35012222  0.25913083  0.48372000     0.40300
C1156       C  0.32886463  0.24642731  0.45516931    -0.26800
O1157       O  0.38576936  0.26306469  0.38244279    -0.58700
H1158       H  0.42072786  0.28591464  0.43901967     0.15900
O1159       O  0.33748654  0.25770989  0.51648350    -0.60100
H1160       H  0.30331558  0.23632522  0.45985331     0.14400
H1161       H  0.30074777  0.29259156  0.32275551     0.46200
H1162       H  0.39705915  0.28615119  0.37553796     0.41600
H1163       H  0.33293635  0.23669413  0.52634592     0.45100
H1164       H  0.29023725  0.17257264  0.40486307     0.36500
C1165       C  0.62424619  0.44601799  0.60148151    -0.27700
C1166       C  0.64193625  0.44519143  0.57236081     0.01900
C1167       C  0.62542812  0.42393402  0.54448580     0.30000
C1168       C  0.59198079  0.40373632  0.54611526    -0.19500
C1169       C  0.57411803  0.40391863  0.57544207    -0.28900
C1170       C  0.59063153  0.42576797  0.60312274     0.44000
C1171       C  0.67774685  0.46338198  0.57309763     0.05200
O1172       O  0.64210101  0.42073533  0.51690715    -0.57400
H1173       H  0.58020908  0.38692574  0.52468059     0.18100
O1174       O  0.57443865  0.42704098  0.63226997    -0.64100
H1175       H  0.63667586  0.46199445  0.62336152     0.16600
C1176       C  0.69634688  0.48452368  0.54581942     0.28800
C1177       C  0.73005341  0.49822621  0.54556605    -0.25000
C1178       C  0.74565587  0.49113174  0.57230961    -0.24300
C1179       C  0.72677024  0.47052593  0.60005598     0.40300
C1180       C  0.69337461  0.45720551  0.60033892    -0.26800
O1181       O  0.68178329  0.49245392  0.51986282    -0.58700
H1182       H  0.74392542  0.51419165  0.52425614     0.15900
O1183       O  0.74043539  0.46211913  0.62654904    -0.60100
H1184       H  0.67941686  0.44076881  0.62131012     0.14400
H1185       H  0.56719898  0.44247014  0.62615647     0.46200
H1186       H  0.68575956  0.48408741  0.49767448     0.41600
H1187       H  0.74008403  0.44235813  0.61806504     0.45100
H1188       H  0.63610779  0.42885181  0.49599354     0.36500
C1189       C  0.54537843  0.18235985  0.58558764    -0.27700
C1190       C  0.55220642  0.20738629  0.56163762     0.01900
C1191       C  0.57878198  0.21767774  0.53884621     0.30000
C1192       C  0.59816644  0.20354929  0.54067931    -0.19500
C1193       C  0.59195287  0.17916451  0.56525167    -0.28900
C1194       C  0.56488226  0.16825968  0.58745755     0.44000
C1195       C  0.53375463  0.22487039  0.56321208     0.05200
O1196       O  0.58763105  0.24337395  0.51670649    -0.57400
H1197       H  0.61903974  0.21277149  0.52360690     0.18100
O1198       O  0.55743556  0.14416097  0.61139474    -0.64100
H1199       H  0.52508526  0.17406869  0.60337348     0.16600
C1200       C  0.52072923  0.23100078  0.53295026     0.28800
C1201       C  0.50712510  0.25097464  0.53501826    -0.25000
C1202       C  0.50554883  0.26476788  0.56720337    -0.24300
C1203       C  0.51662115  0.25660641  0.59783707     0.40300
C1204       C  0.53066822  0.23717704  0.59554922    -0.26800
O1205       O  0.52145555  0.21790655  0.50109837    -0.58700
H1206       H  0.49834687  0.25613288  0.51114120     0.15900
O1207       O  0.51496593  0.26833442  0.63022358    -0.60100
H1208       H  0.54019325  0.23257115  0.61921207     0.14400
H1209       H  0.54423261  0.12375511  0.59823206     0.46200
H1210       H  0.50252847  0.19572662  0.50131119     0.41600
H1211       H  0.49424884  0.25153387  0.64047176     0.45100
H1212       H  0.58388728  0.23426027  0.49259393     0.36500
C1213       C  0.45736435  0.42447709  0.72388544    -0.27700
C1214       C  0.42772959  0.42390137  0.72385054     0.01900
C1215       C  0.40559564  0.40684847  0.69679849     0.30000
C1216       C  0.41287713  0.39072500  0.67092545    -0.19500
C1217       C  0.44198046  0.39029476  0.67129524    -0.28900
C1218       C  0.46456248  0.40788991  0.69797968     0.44000
C1219       C  0.41838096  0.43846024  0.75327445     0.05200
O1220       O  0.37595468  0.40451491  0.69615959    -0.57400
H1221       H  0.39480887  0.37741320  0.65108620     0.18100
O1222       O  0.49344910  0.40867906  0.69945379    -0.64100
H1223       H  0.47484335  0.43750372  0.74433768     0.16600
C1224       C  0.41900275  0.42967326  0.78843472     0.28800
C1225       C  0.40444510  0.43834195  0.81497368    -0.25000
C1226       C  0.38842524  0.45548887  0.80740359    -0.24300
C1227       C  0.38993160  0.46637552  0.77259611     0.40300
C1228       C  0.40482895  0.45792391  0.74603686    -0.26800
O1229       O  0.43192858  0.41078350  0.79695919    -0.58700
H1230       H  0.40426073  0.42996188  0.84143529     0.15900
O1231       O  0.37499967  0.48327762  0.76357696    -0.60100
H1232       H  0.40446662  0.46538591  0.71926894     0.14400
H1233       H  0.50813115  0.42679524  0.68393441     0.46200
H1234       H  0.41419803  0.38821396  0.79357855     0.41600
H1235       H  0.39185017  0.50634258  0.76586012     0.45100
H1236       H  0.36206417  0.38596769  0.71160405     0.36500
C1237       C  0.25017236  0.33313168  0.02266240    -0.27700
C1238       C  0.23648882  0.34003131  0.05155823     0.01900
C1239       C  0.23773127  0.37010342  0.05252944     0.30000
C1240       C  0.25362163  0.39305220  0.02576323    -0.19500
C1241       C  0.26845816  0.38662141  0.99738531    -0.28900
C1242       C  0.26595051  0.35582655  0.99593435     0.44000
C1243       C  0.22448417  0.31718360  0.08202434     0.05200
O1244       O  0.22410838  0.37762807  0.07997090    -0.57400
H1245       H  0.25488410  0.41620678  0.02767729     0.18100
O1246       O  0.27974104  0.34775857  0.96910250    -0.64100
H1247       H  0.25008858  0.31051159  0.02155892     0.16600
C1248       C  0.20293849  0.28373618  0.07767338     0.28800
C1249       C  0.19581794  0.26236094  0.10612433    -0.25000
C1250       C  0.21023688  0.27368006  0.13922636    -0.24300
C1251       C  0.23047509  0.30748040  0.14379069     0.40300
C1252       C  0.23747313  0.32862449  0.11547064    -0.26800
O1253       O  0.18858995  0.27177300  0.04573070    -0.58700
H1254       H  0.17990221  0.23673956  0.10181920     0.15900
O1255       O  0.24468938  0.32028576  0.17555892    -0.60100
H1256       H  0.25431873  0.35411642  0.11943203     0.14400
H1257       H  0.30131431  0.35320402  0.97790384     0.46200
H1258       H  0.19887149  0.25983323  0.03628006     0.41600
H1259       H  0.22899046  0.32421013  0.18840549     0.45100
H1260       H  0.20118444  0.36847421  0.07336279     0.36500
C1261       C  0.19697582  0.32949056  0.85014551    -0.27700
C1262       C  0.17793061  0.33628981  0.82815163     0.01900
C1263       C  0.19188953  0.36625524  0.81068234     0.30000
C1264       C  0.22399139  0.38967669  0.81718763    -0.19500
C1265       C  0.24275151  0.38345902  0.84061932    -0.28900
C1266       C  0.22905654  0.35250099  0.85631856     0.44000
C1267       C  0.14313624  0.31270422  0.82558910     0.05200
O1268       O  0.17410498  0.37320283  0.78797230    -0.57400
H1269       H  0.23387704  0.41303623  0.80463409     0.18100
O1270       O  0.24622095  0.34470872  0.87903591    -0.64100
H1271       H  0.18656958  0.30670869  0.86403518     0.16600
C1272       C  0.13186628  0.27987643  0.81828251     0.28800
C1273       C  0.09879994  0.25826405  0.81557329    -0.25000
C1274       C  0.07678503  0.26907309  0.81963221    -0.24300
C1275       C  0.08792752  0.30150420  0.82846889     0.40300
C1276       C  0.12090663  0.32301762  0.83167863    -0.26800
O1277       O  0.15301583  0.26927487  0.81111831    -0.58700
H1278       H  0.09051014  0.23350429  0.80789514     0.15900
O1279       O  0.06683507  0.31262882  0.83270457    -0.60100
H1280       H  0.12918231  0.34796355  0.83844123     0.14400
H1281       H  0.24062628  0.34876646  0.90290674     0.46200
H1282       H  0.15115724  0.25532037  0.83124472     0.41600
H1283       H  0.05894722  0.30711696  0.85724852     0.45100
H1284       H  0.17644041  0.36514954  0.76474316     0.36500
C1285       C  0.42712822  0.62980353  0.93393668    -0.27700
C1286       C  0.42865749  0.64902745  0.90539043     0.01900
C1287       C  0.41188364  0.63347469  0.87429883     0.30000
C1288       C  0.39346254  0.59958684  0.87255431    -0.19500
C1289       C  0.39073979  0.58043137  0.90173270    -0.28900
C1290       C  0.40840182  0.59600274  0.93239788     0.44000
C1291       C  0.44693695  0.68510297  0.90864745     0.05200
O1292       O  0.41229331  0.65115562  0.84582622    -0.57400
H1293       H  0.38006957  0.58836088  0.84877338     0.18100
O1294       O  0.40725739  0.57844299  0.96131918    -0.64100
H1295       H  0.44040225  0.64103362  0.95776840     0.16600
C1296       C  0.44213727  0.70082768  0.93753680     0.28800
C1297       C  0.45791405  0.73472315  0.93887028    -0.25000
C1298       C  0.47847996  0.75368479  0.91157408    -0.24300
C1299       C  0.48430489  0.73799786  0.88343664     0.40300
C1300       C  0.46875387  0.70415338  0.88223389    -0.26800
O1301       O  0.42023290  0.68328646  0.96331100    -0.58700
H1302       H  0.45267089  0.74611895  0.96050756     0.15900
O1303       O  0.50464729  0.75546418  0.85649007    -0.60100
H1304       H  0.47347126  0.69271869  0.86023665     0.14400
H1305       H  0.42758912  0.57787959  0.96054914     0.46200
H1306       H  0.43327271  0.68535145  0.98436161     0.41600
H1307       H  0.52657361  0.76201511  0.86506953     0.45100
H1308       H  0.39459765  0.65571033  0.85009765     0.36500
C1309       C  0.22510889  0.53267375  0.93576898    -0.27700
C1310       C  0.21257271  0.53520144  0.90329869     0.01900
C1311       C  0.21805533  0.52112232  0.87342969     0.30000
C1312       C  0.23744255  0.50703174  0.87577995    -0.19500
C1313       C  0.25144841  0.50594236  0.90786714    -0.28900
C1314       C  0.24401279  0.51793994  0.93830262     0.44000
C1315       C  0.19581632  0.55434044  0.90031171     0.05200
O1316       O  0.20517759  0.52163578  0.84147453    -0.57400
H1317       H  0.24211587  0.49753855  0.85202030     0.18100
O1318       O  0.25678852  0.51741844  0.97030103    -0.64100
H1319       H  0.22140180  0.54337581  0.95913181     0.16600
C1320       C  0.17144320  0.55021636  0.92413700     0.28800
C1321       C  0.15815574  0.57040828  0.92240706    -0.25000
C1322       C  0.16811009  0.59449215  0.89655083    -0.24300
C1323       C  0.19159354  0.59792341  0.87196463     0.40300
C1324       C  0.20540917  0.57822723  0.87416750    -0.26800
O1325       O  0.16066011  0.52678549  0.94952659    -0.58700
H1326       H  0.14018552  0.56746133  0.94163522     0.15900
O1327       O  0.20311960  0.62217394  0.84747003    -0.60100
H1328       H  0.22456363  0.58245197  0.85603472     0.14400
H1329       H  0.23998386  0.49750259  0.98195279     0.46200
H1330       H  0.14348793  0.50699262  0.93801760     0.41600
H1331       H  0.19038722  0.61202650  0.82592196     0.45100
H1332       H  0.18264933  0.50339282  0.84219821     0.36500
C1333       C  0.70703935  0.85320062  0.83316576    -0.27700
C1334       C  0.67406830  0.83040785  0.83570791     0.01900
C1335       C  0.66381579  0.79728271  0.83357231     0.30000
C1336       C  0.68628166  0.78746041  0.82762767    -0.19500
C1337       C  0.71921408  0.81028442  0.82435476    -0.28900
C1338       C  0.72958272  0.84341820  0.82773172     0.44000
C1339       C  0.65064417  0.84148267  0.84060431     0.05200
O1340       O  0.63185380  0.77432781  0.83677944    -0.57400
H1341       H  0.67784763  0.76191381  0.82488794     0.18100
O1342       O  0.76144930  0.86655606  0.82393918    -0.64100
H1343       H  0.71530259  0.87878962  0.83428767     0.16600
C1344       C  0.65493485  0.86335724  0.86757869     0.28800
C1345       C  0.63213384  0.87277134  0.87264207    -0.25000
C1346       C  0.60456484  0.86066509  0.85121743    -0.24300
C1347       C  0.60067522  0.83931653  0.82361362     0.40300
C1348       C  0.62370869  0.82999935  0.81842141    -0.26800
O1349       O  0.68027746  0.87406037  0.89056632    -0.58700
H1350       H  0.63569472  0.88884516  0.89442921     0.15900
O1351       O  0.57430020  0.82691233  0.80200371    -0.60100
H1352       H  0.62042876  0.81357939  0.79710501     0.14400
H1353       H  0.76432584  0.87196018  0.79854217     0.46200
H1354       H  0.69482780  0.89714789  0.88472294     0.41600
H1355       H  0.58026097  0.84303140  0.78295217     0.45100
H1356       H  0.62811220  0.77035724  0.86239608     0.36500
C1357       C  0.78817855  0.66651696  0.67886837    -0.27700
C1358       C  0.82071910  0.67812628  0.67088735     0.01900
C1359       C  0.84284127  0.71152319  0.67266884     0.30000
C1360       C  0.83236280  0.73271275  0.68245199    -0.19500
C1361       C  0.80004135  0.72109674  0.69152154    -0.28900
C1362       C  0.77778187  0.68770249  0.68941382     0.44000
C1363       C  0.83139936  0.65548770  0.65988706     0.05200
O1364       O  0.87494340  0.72365639  0.66571525    -0.57400
H1365       H  0.84996678  0.75823321  0.68443883     0.18100
O1366       O  0.74594872  0.67549062  0.69784850    -0.64100
H1367       H  0.77074769  0.64097423  0.67681773     0.16600
C1368       C  0.82386010  0.62781065  0.67975902     0.28800
C1369       C  0.83450024  0.60696758  0.66848530    -0.25000
C1370       C  0.85271050  0.61339779  0.63752260    -0.24300
C1371       C  0.86020620  0.64121571  0.61774991     0.40300
C1372       C  0.84945514  0.66181849  0.62895257    -0.26800
O1373       O  0.80709425  0.62157447  0.71076972    -0.58700
H1374       H  0.82842128  0.58571036  0.68398246     0.15900
O1375       O  0.87729287  0.64816589  0.58689304    -0.60100
H1376       H  0.85485248  0.68265431  0.61301228     0.14400
H1377       H  0.73534706  0.67530352  0.67545519     0.46200
H1378       H  0.78536632  0.60297786  0.70573214     0.41600
H1379       H  0.86086289  0.63746785  0.56822009     0.45100
H1380       H  0.88448908  0.72261246  0.68839884     0.36500
C1381       C  0.87511022  0.96586441  0.77904982    -0.27700
C1382       C  0.86275658  0.97960006  0.75583525     0.01900
C1383       C  0.83858561  0.95924962  0.73179202     0.30000
C1384       C  0.82724471  0.92590119  0.73139066    -0.19500
C1385       C  0.83930411  0.91220249  0.75513879    -0.28900
C1386       C  0.86352437  0.93264929  0.77906803     0.44000
C1387       C  0.87714315  0.01536830  0.75569963     0.05200
O1388       O  0.82586983  0.97165972  0.70858614    -0.57400
H1389       H  0.80871146  0.91068404  0.71275578     0.18100
O1390       O  0.87742183  0.92070217  0.80132450    -0.64100
H1391       H  0.89450196  0.98109880  0.79682725     0.16600
C1392       C  0.88248654  0.03292886  0.78726475     0.28800
C1393       C  0.90103761  0.06676602  0.78720740    -0.25000
C1394       C  0.91433893  0.08390065  0.75584414    -0.24300
C1395       C  0.90679614  0.06622329  0.72389167     0.40300
C1396       C  0.88857618  0.03244173  0.72413057    -0.26800
O1397       O  0.87062083  0.01719861  0.81858652    -0.58700
H1398       H  0.90594987  0.07949178  0.81204544     0.15900
O1399       O  0.91784071  0.08151078  0.69218400    -0.60100
H1400       H  0.88485135  0.01954216  0.69956453     0.14400
H1401       H  0.86699077  0.91862714  0.82446921     0.46200
H1402       H  0.84775899  0.01162873  0.81915470     0.41600
H1403       H  0.93722869  0.07996643  0.68677906     0.45100
H1404       H  0.80765923  0.97131020  0.72131207     0.36500
C1405       C  0.96074938  0.88112844  0.78102985    -0.27700
C1406       C  0.97498941  0.87428411  0.75248344     0.01900
C1407       C  0.95483204  0.85144401  0.72723520     0.30000
C1408       C  0.92112255  0.83672552  0.73027844    -0.19500
C1409       C  0.90700019  0.84406174  0.75860559    -0.28900
C1410       C  0.92721155  0.86618835  0.78430932     0.44000
C1411       C  0.01086517  0.89163197  0.74977943     0.05200
O1412       O  0.96784248  0.84257544  0.70028715    -0.57400
H1413       H  0.90597150  0.81961208  0.71036659     0.18100
O1414       O  0.91450617  0.87514546  0.81145882    -0.64100
H1415       H  0.97578861  0.89881625  0.80054907     0.16600
C1416       C  0.02734660  0.91023610  0.72001206     0.28800
C1417       C  0.06113528  0.92935755  0.72014544    -0.25000
C1418       C  0.07909033  0.93099720  0.75003095    -0.24300
C1419       C  0.06259736  0.91132258  0.77917596     0.40300
C1420       C  0.02894193  0.89203826  0.77888460    -0.26800
O1421       O  0.01065420  0.91140517  0.69142527    -0.58700
H1422       H  0.07312427  0.94439397  0.69752973     0.15900
O1423       O  0.07906178  0.91131784  0.80854146    -0.60100
H1424       H  0.01679143  0.87783002  0.80195103     0.14400
H1425       H  0.91349729  0.86164395  0.83167098     0.46200
H1426       H  0.00580883  0.92877337  0.69679924     0.41600
H1427       H  0.08093531  0.89172242  0.80624482     0.45100
H1428       H  0.96275877  0.85038569  0.67847459     0.36500
C1429       C  0.87007457  0.67410671  0.16007119    -0.27700
C1430       C  0.84705624  0.68378705  0.16233345     0.01900
C1431       C  0.85691685  0.71640748  0.16868595     0.30000
C1432       C  0.88952539  0.73880567  0.17336880    -0.19500
C1433       C  0.91245316  0.72894452  0.17238517    -0.28900
C1434       C  0.90265754  0.69646240  0.16507986     0.44000
C1435       C  0.81278125  0.65971599  0.15763492     0.05200
O1436       O  0.83460305  0.72600927  0.17302212    -0.57400
H1437       H  0.89660702  0.76350162  0.18008636     0.18100
O1438       O  0.92458045  0.68614032  0.16403183    -0.64100
H1439       H  0.86267290  0.64908654  0.15480729     0.16600
C1440       C  0.79504413  0.66377041  0.13100812     0.28800
C1441       C  0.76267415  0.64101742  0.12667906    -0.25000
C1442       C  0.74739145  0.61327409  0.14799699    -0.24300
C1443       C  0.76530135  0.60907936  0.17463373     0.40300
C1444       C  0.79784574  0.63230719  0.17928521    -0.26800
O1445       O  0.80938501  0.68947429  0.10835227    -0.58700
H1446       H  0.74989265  0.64468382  0.10543896     0.15900
O1447       O  0.75153168  0.58234610  0.19584905    -0.60100
H1448       H  0.81148332  0.62895332  0.19979318     0.14400
H1449       H  0.93471364  0.69242306  0.14045014     0.46200
H1450       H  0.81850531  0.68242010  0.08919181     0.41600
H1451       H  0.74268632  0.58839444  0.21617410     0.45100
H1452       H  0.83791890  0.74054025  0.15295922     0.36500
C1453       C  0.74732374  0.62630832  0.94179289    -0.27700
C1454       C  0.74770035  0.65587948  0.94200977     0.01900
C1455       C  0.73104397  0.66158072  0.96897980     0.30000
C1456       C  0.71424149  0.63805770  0.99465594    -0.19500
C1457       C  0.71322831  0.60814434  0.99433123    -0.28900
C1458       C  0.73047461  0.60266428  0.96768568     0.44000
C1459       C  0.76205875  0.67904201  0.91206807     0.05200
O1460       O  0.72880588  0.68901665  0.96884029    -0.57400
H1461       H  0.70101754  0.64307963  0.01435246     0.18100
O1462       O  0.73054354  0.57413254  0.96613565    -0.64100
H1463       H  0.75975365  0.62132494  0.92109554     0.16600
C1464       C  0.78345387  0.71237913  0.91742297     0.28800
C1465       C  0.79129861  0.73428365  0.88948890    -0.25000
C1466       C  0.77841088  0.72350558  0.85567974    -0.24300
C1467       C  0.75952932  0.68979316  0.84980919     0.40300
C1468       C  0.75160371  0.66804765  0.87777374    -0.26800
O1469       O  0.79594798  0.72396065  0.95012597    -0.58700
H1470       H  0.80631524  0.75987785  0.89475409     0.15900
O1471       O  0.74819023  0.67772579  0.81687663    -0.60100
H1472       H  0.73570555  0.64250795  0.87287859     0.14400
H1473       H  0.74900112  0.57761941  0.98090339     0.46200
H1474       H  0.81481060  0.72092092  0.95219021     0.41600
H1475       H  0.72519498  0.67174645  0.81706686     0.45100
H1476       H  0.74151847  0.70184962  0.98939043     0.36500
C1477       C  0.45143678  0.46433368  0.99146396    -0.27700
C1478       C  0.47375227  0.49701824  0.99735195     0.01900
C1479       C  0.46434222  0.52023542  0.99289442     0.30000
C1480       C  0.43298014  0.51056973  0.98207736    -0.19500
C1481       C  0.41090041  0.47798158  0.97515544    -0.28900
C1482       C  0.42022748  0.45470980  0.98027383     0.44000
C1483       C  0.50676653  0.50647955  0.00821906     0.05200
O1484       O  0.48625164  0.55252709  0.99683559    -0.57400
H1485       H  0.42638333  0.52876101  0.97755714     0.18100
O1486       O  0.39886036  0.42247817  0.97490548    -0.64100
H1487       H  0.45832513  0.44624138  0.99536111     0.16600
C1488       C  0.51934179  0.52306739  0.03996883     0.28800
C1489       C  0.55042546  0.53150526  0.05011100    -0.25000
C1490       C  0.56936252  0.52307288  0.02934233    -0.24300
C1491       C  0.55665333  0.50624741  0.99755046     0.40300
C1492       C  0.52548290  0.49800082  0.98726459    -0.26800
O1493       O  0.50114922  0.53046463  0.06173283    -0.58700
H1494       H  0.55936403  0.54398650  0.07493711     0.15900
O1495       O  0.57435278  0.49777476  0.97635507    -0.60100
H1496       H  0.51590594  0.48507118  0.96278846     0.14400
H1497       H  0.40484263  0.41731680  0.95181593     0.46200
H1498       H  0.48830425  0.51086730  0.07621215     0.41600
H1499       H  0.58703353  0.51672239  0.96093617     0.45100
H1500       H  0.47897062  0.55957026  0.01772862     0.36500
C1501       C  0.78237126  0.42500675  0.11920135    -0.27700
C1502       C  0.78315164  0.44024930  0.08737912     0.01900
C1503       C  0.79997391  0.43706671  0.05863800     0.30000
C1504       C  0.81405551  0.41759178  0.06147398    -0.19500
C1505       C  0.81198198  0.40109830  0.09281837    -0.28900
C1506       C  0.79647887  0.40559510  0.12207415     0.44000
C1507       C  0.76520892  0.45818595  0.08439314     0.05200
O1508       O  0.80357340  0.45369027  0.02804070    -0.57400
H1509       H  0.82637570  0.41512117  0.03881781     0.18100
O1510       O  0.79379013  0.39014634  0.15326518    -0.64100
H1511       H  0.76969491  0.42719522  0.14167967     0.16600
C1512       C  0.74186093  0.45054555  0.05793198     0.28800
C1513       C  0.72352217  0.46589413  0.05722328    -0.25000
C1514       C  0.72709051  0.48825594  0.08333746    -0.24300
C1515       C  0.75081026  0.49636706  0.10942702     0.40300
C1516       C  0.76958942  0.48146079  0.10976958    -0.26800
O1517       O  0.73543617  0.42679754  0.03372085    -0.58700
H1518       H  0.70508302  0.45883172  0.03730536     0.15900
O1519       O  0.75544858  0.51839546  0.13517063    -0.60100
H1520       H  0.78731454  0.48771201  0.13035109     0.14400
H1521       H  0.77319062  0.36933362  0.15160276     0.46200
H1522       H  0.71985609  0.40630028  0.04543027     0.41600
H1523       H  0.76937835  0.53983623  0.12428148     0.45100
H1524       H  0.79213726  0.43701335  0.00969722     0.36500
C1525       C  0.50818317  0.29497181  0.07417813    -0.27700
C1526       C  0.53423398  0.31334029  0.09692217     0.01900
C1527       C  0.54486285  0.29705810  0.11899484     0.30000
C1528       C  0.52984870  0.26330434  0.11799003    -0.19500
C1529       C  0.50430643  0.24485044  0.09469477    -0.28900
C1530       C  0.49325558  0.26108100  0.07296057     0.44000
C1531       C  0.55138845  0.34942779  0.09642607     0.05200
O1532       O  0.57069785  0.31400047  0.14090382    -0.57400
H1533       H  0.53907747  0.25161334  0.13478762     0.18100
O1534       O  0.46795500  0.24416793  0.05040701    -0.64100
H1535       H  0.49943567  0.30697427  0.05719426     0.16600
C1536       C  0.56499109  0.36658872  0.06514196     0.28800
C1537       C  0.58381676  0.40038752  0.06568173    -0.25000
C1538       C  0.58965143  0.41812475  0.09718117    -0.24300
C1539       C  0.57490418  0.40089131  0.12832482     0.40300
C1540       C  0.55612586  0.36696188  0.12774904    -0.26800
O1541       O  0.56197469  0.35042412  0.03427260    -0.58700
H1542       H  0.59482564  0.41259678  0.04126690     0.15900
O1543       O  0.57936644  0.41671577  0.15971675    -0.60100
H1544       H  0.54562353  0.35420528  0.15206495     0.14400
H1545       H  0.44835588  0.23771191  0.06472262     0.46200
H1546       H  0.54547495  0.35227527  0.02053456     0.41600
H1547       H  0.56209930  0.42226764  0.16074296     0.45100
H1548       H  0.58991866  0.31935676  0.12636483     0.36500
C1549       C  0.57217302  0.58210903  0.30935559    -0.27700
C1550       C  0.55910286  0.57864671  0.27564559     0.01900
C1551       C  0.53595016  0.58815427  0.27035728     0.30000
C1552       C  0.52815324  0.60298833  0.29775987    -0.19500
C1553       C  0.54314415  0.60872341  0.33084346    -0.28900
C1554       C  0.56435857  0.59670210  0.33670508     0.44000
C1555       C  0.57241515  0.56830577  0.24580079     0.05200
O1556       O  0.52066125  0.58276070  0.23851871    -0.57400
H1557       H  0.51122910  0.61110987  0.29256815     0.18100
O1558       O  0.57881884  0.60020511  0.36872670    -0.64100
H1559       H  0.58976633  0.57476691  0.31418222     0.16600
C1560       C  0.58606132  0.58845537  0.21635419     0.28800
C1561       C  0.60098249  0.58032619  0.18983496    -0.25000
C1562       C  0.60377016  0.55243235  0.19185438    -0.24300
C1563       C  0.58998888  0.53204644  0.22130639     0.40300
C1564       C  0.57464280  0.54011038  0.24794743    -0.26800
O1565       O  0.58641783  0.61717328  0.21391410    -0.58700
H1566       H  0.61150938  0.59691455  0.16801674     0.15900
O1567       O  0.59186610  0.50459722  0.22480649    -0.60100
H1568       H  0.56474893  0.52445490  0.27059609     0.14400
H1569       H  0.56341188  0.58100537  0.38250181     0.46200
H1570       H  0.60578182  0.63298320  0.22715446     0.41600
H1571       H  0.57283918  0.48758162  0.21210103     0.45100
H1572       H  0.52700736  0.60441890  0.22902539     0.36500
C1573       C  0.65998149  0.75107913  0.64204088    -0.27700
C1574       C  0.67040044  0.76707714  0.60967284     0.01900
C1575       C  0.70281545  0.79201693  0.60644448     0.30000
C1576       C  0.72464506  0.79863327  0.63419039    -0.19500
C1577       C  0.71478158  0.78084486  0.66567489    -0.28900
C1578       C  0.68159083  0.75790900  0.66988146     0.44000
C1579       C  0.64780270  0.75560217  0.57899049     0.05200
O1580       O  0.71318106  0.81034239  0.57641859    -0.57400
H1581       H  0.74962347  0.81709422  0.63047773     0.18100
O1582       O  0.66999648  0.74096626  0.70059880    -0.64100
H1583       H  0.63511019  0.73216908  0.64536528     0.16600
C1584       C  0.65629537  0.74640064  0.54732907     0.28800
C1585       C  0.63395167  0.73270244  0.51995497    -0.25000
C1586       C  0.60218211  0.72671066  0.52338677    -0.24300
C1587       C  0.59380853  0.73653128  0.55485823     0.40300
C1588       C  0.61644494  0.75069774  0.58223459    -0.26800
O1589       O  0.68586540  0.74893370  0.54345189    -0.58700
H1590       H  0.64133105  0.72533788  0.49643419     0.15900
O1591       O  0.56330910  0.73138270  0.55982450    -0.60100
H1592       H  0.60925402  0.75731560  0.60642693     0.14400
H1593       H  0.66449572  0.75450266  0.71553148     0.46200
H1594       H  0.68344515  0.72884426  0.55374488     0.41600
H1595       H  0.56390502  0.75090840  0.55030204     0.45100
H1596       H  0.73018874  0.80677132  0.56630321     0.36500
C1597       C  0.61765245  0.80648290  0.33560905    -0.27700
C1598       C  0.64991498  0.81443228  0.33267310     0.01900
C1599       C  0.65862777  0.79137638  0.34130380     0.30000
C1600       C  0.63523349  0.76101163  0.35340873    -0.19500
C1601       C  0.60291868  0.75306852  0.35666604    -0.28900
C1602       C  0.59419214  0.77607098  0.34742903     0.44000
C1603       C  0.67419875  0.84701440  0.32090255     0.05200
O1604       O  0.68992877  0.79834607  0.33815609    -0.57400
H1605       H  0.64242890  0.74366650  0.36041668     0.18100
O1606       O  0.56312973  0.76964790  0.35124306    -0.64100
H1607       H  0.61074595  0.82423370  0.32955899     0.16600
C1608       C  0.66986012  0.85937812  0.28929963     0.28800
C1609       C  0.69229451  0.89068756  0.27914478    -0.25000
C1610       C  0.71931912  0.91021229  0.30012218    -0.24300
C1611       C  0.72394129  0.89769124  0.33156173     0.40300
C1612       C  0.70134242  0.86623470  0.34180874    -0.26800
O1613       O  0.64442017  0.84053442  0.26752654    -0.58700
H1614       H  0.68868340  0.89951157  0.25436456     0.15900
O1615       O  0.75011358  0.91598012  0.35258446    -0.60100
H1616       H  0.70472489  0.85698514  0.36639463     0.14400
H1617       H  0.56193130  0.77645276  0.37558309     0.46200
H1618       H  0.62966644  0.84928352  0.26951955     0.41600
H1619       H  0.74338394  0.92798542  0.36843231     0.45100
H1620       H  0.69201811  0.79276455  0.31353894     0.36500
C1621       C  0.52602005  0.53837137  0.49401108    -0.27700
C1622       C  0.49328442  0.51684620  0.50034426     0.01900
C1623       C  0.47180641  0.52862568  0.50294392     0.30000
C1624       C  0.48303760  0.56141201  0.49788709    -0.19500
C1625       C  0.51555020  0.58277699  0.48969112    -0.28900
C1626       C  0.53724992  0.57108503  0.48862012     0.44000
C1627       C  0.48207895  0.48233207  0.50532010     0.05200
O1628       O  0.43963776  0.50814991  0.50934510    -0.57400
H1629       H  0.46586259  0.56974730  0.49856514     0.18100
O1630       O  0.56932426  0.59118691  0.48141591    -0.64100
H1631       H  0.54295722  0.52974897  0.49309513     0.16600
C1632       C  0.48920119  0.46484726  0.48058295     0.28800
C1633       C  0.48011157  0.43267517  0.48729745    -0.25000
C1634       C  0.46367162  0.41767221  0.51833304    -0.24300
C1635       C  0.45606640  0.43514843  0.54270238     0.40300
C1636       C  0.46529711  0.46716564  0.53605002    -0.26800
O1637       O  0.50431867  0.47882083  0.44950368    -0.58700
H1638       H  0.48601887  0.41951705  0.46835807     0.15900
O1639       O  0.44079070  0.42162459  0.57387202    -0.60100
H1640       H  0.46019598  0.48051902  0.55555755     0.14400
H1641       H  0.57951003  0.59994836  0.50454847     0.46200
H1642       H  0.52651031  0.48260190  0.45180842     0.41600
H1643       H  0.45832435  0.42703290  0.59100030     0.45100
H1644       H  0.42986461  0.49998777  0.48591142     0.36500
C1645       C  0.44354121  0.75330314  0.45290261    -0.27700
C1646       C  0.45018332  0.77456892  0.42458633     0.01900
C1647       C  0.47330900  0.77793911  0.39944101     0.30000
C1648       C  0.48802777  0.75902880  0.40194413    -0.19500
C1649       C  0.48075190  0.73722220  0.42980196    -0.28900
C1650       C  0.45873159  0.73495336  0.45577506     0.44000
C1651       C  0.43215628  0.79232582  0.42163254     0.05200
O1652       O  0.48244118  0.80042907  0.37311335    -0.57400
H1653       H  0.50499523  0.76123361  0.38183055     0.18100
O1654       O  0.45001771  0.71306829  0.48263873    -0.64100
H1655       H  0.42574479  0.75019853  0.47243654     0.16600
C1656       C  0.41466145  0.79042780  0.39109618     0.28800
C1657       C  0.39503184  0.80439979  0.39064903    -0.25000
C1658       C  0.39216362  0.82026585  0.42040743    -0.24300
C1659       C  0.41074777  0.82322018  0.45045728     0.40300
C1660       C  0.43028380  0.80925200  0.45087604    -0.26800
O1661       O  0.41440395  0.77262783  0.36264898    -0.58700
H1662       H  0.38082671  0.80140277  0.36738971     0.15900
O1663       O  0.40935866  0.83887065  0.48008001    -0.60100
H1664       H  0.44362977  0.81113155  0.47453445     0.14400
H1665       H  0.46307952  0.72573590  0.50308291     0.46200
H1666       H  0.42453324  0.78833477  0.34319112     0.41600
H1667       H  0.42624085  0.86179616  0.47673887     0.45100
H1668       H  0.47687750  0.78806987  0.35076330     0.36500
C1669       C  0.36208714  0.55493516  0.40386270    -0.27700
C1670       C  0.34359020  0.56229699  0.42681182     0.01900
C1671       C  0.35963601  0.58960689  0.44876855     0.30000
C1672       C  0.39320466  0.60889564  0.44757562    -0.19500
C1673       C  0.41171512  0.60205333  0.42418421    -0.28900
C1674       C  0.39584631  0.57460300  0.40237335     0.44000
C1675       C  0.30761068  0.54274146  0.42669069     0.05200
O1676       O  0.34265361  0.59829946  0.47085391    -0.57400
H1677       H  0.40475316  0.63000084  0.46442580     0.18100
O1678       O  0.41301122  0.56661163  0.37975003    -0.64100
H1679       H  0.35031813  0.53387456  0.38701252     0.16600
C1680       C  0.29013134  0.53762039  0.39538591     0.28800
C1681       C  0.25646776  0.52296673  0.39635818    -0.25000
C1682       C  0.23922387  0.51297220  0.42830977    -0.24300
C1683       C  0.25672723  0.51680068  0.45951206     0.40300
C1684       C  0.29047162  0.53136575  0.45844733    -0.26800
O1685       O  0.30586711  0.54896582  0.36394313    -0.58700
H1686       H  0.24396751  0.52037130  0.37184620     0.15900
O1687       O  0.24134111  0.50708345  0.49134162    -0.60100
H1688       H  0.30342601  0.53461254  0.48278435     0.14400
H1689       H  0.42023678  0.55423477  0.39414733     0.46200
H1690       H  0.30323051  0.52963754  0.35133589     0.41600
H1691       H  0.24257846  0.52668167  0.50172739     0.45100
H1692       H  0.33695977  0.61186883  0.45639034     0.36500
loop_ 
_geom_bond_atom_site_label_1 
_geom_bond_atom_site_label_2 
_geom_bond_distance 
_geom_bond_site_symmetry_2 
_ccdc_geom_bond_type 
Fe1          O17   2.047       .  S
Fe1           O7   2.051       .  S
Fe1          O14   2.050       .  S
Fe1           O6   2.046       .  S
Fe1          O12   1.971       .  S
Fe2           O5   2.086       .  S
Fe2           O9   2.071       .  S
Fe2          O13   2.101       .  S
Fe2          O18   2.084       .  S
Fe2          O12   1.974       .  S
Fe3          O21   2.071       .  S
Fe3           O8   2.066       .  S
Fe3          O15   2.090       .  S
Fe3           O4   2.066       .  S
Fe3          O12   1.976       .  S
O4           C11   1.275       .  A
O5           C19   1.274       .  A
O6           C11   1.271       .  A
O7           C10   1.263       .  A
O8           C20   1.269       .  A
O9           C22   1.275       .  A
C10          O15   1.269       .  A
C10        C1586   1.501       .  S
C11        C1625   1.473       .  S
O13          C16   1.272       .  A
O14          C16   1.262       .  A
C16        C1553   1.505       .  S
O17          C22   1.271       .  A
O18          C20   1.273       .  A
C19          O21   1.274       .  A
C19        C1649   1.485       .  S
C20        C1673   1.488       .  S
C22        C1601   1.472       .  S
Fe23         O39   2.030       .  S
Fe23         O29   2.046       .  S
Fe23         O36   2.040       .  S
Fe23         O28   2.035       .  S
Fe23         O34   1.970       .  S
Fe24         O27   2.080       .  S
Fe24         O31   2.086       .  S
Fe24         O35   2.111       .  S
Fe24         O40   2.092       .  S
Fe24         O34   1.982       .  S
Fe25         O43   2.078       .  S
Fe25         O30   2.070       .  S
Fe25         O37   2.095       .  S
Fe25         O26   2.085       .  S
Fe25         O34   1.979       .  S
O26          C33   1.276       .  A
O27          C41   1.272       .  A
O28          C33   1.268       .  A
O29          C32   1.262       .  A
O30          C42   1.273       .  A
O31          C44   1.276       .  A
C32          O37   1.270       .  A
C32        C1457   1.499   1_554  S
C33        C1490   1.477       .  S
O35          C38   1.273       .  A
O36          C38   1.261       .  A
C38        C1562   1.506       .  S
O39          C44   1.268       .  A
O40          C42   1.277       .  A
C41          O43   1.272       .  A
C41        C1514   1.491       .  S
C42        C1538   1.500       .  S
C44        C1442   1.478       .  S
Fe45         O61   2.051       .  S
Fe45         O51   2.056       .  S
Fe45         O58   2.053       .  S
Fe45         O50   2.051       .  S
Fe45         O56   1.975       .  S
Fe46         O49   2.063       .  S
Fe46         O53   2.067       .  S
Fe46         O57   2.087       .  S
Fe46         O62   2.071       .  S
Fe46         O56   1.975       .  S
Fe47         O65   2.075       .  S
Fe47         O52   2.081       .  S
Fe47         O59   2.086       .  S
Fe47         O48   2.062       .  S
Fe47         O56   1.974       .  S
O48          C55   1.274       .  A
O49          C63   1.268       .  A
O50          C55   1.271       .  A
O51          C54   1.263       .  A
O52          C64   1.272       .  A
O53          C66   1.274       .  A
C54          O59   1.269       .  A
C54        C1577   1.501       .  S
C55        C1361   1.470       .  S
O57          C60   1.268       .  A
O58          C60   1.262       .  A
C60        C1466   1.498       .  S
O61          C66   1.271       .  A
O62          C64   1.273       .  A
C63          O65   1.271       .  A
C63        C1385   1.485       .  S
C64        C1409   1.485       .  S
C66        C1337   1.472       .  S
Fe67         O83   2.046       .  S
Fe67         O73   2.036       .  S
Fe67         O80   2.036       .  S
Fe67         O72   2.048       .  S
Fe67         O78   1.973       .  S
Fe68         O71   2.088       .  S
Fe68         O75   2.099       .  S
Fe68         O79   2.080       .  S
Fe68         O84   2.074       .  S
Fe68         O78   1.980       .  S
Fe69         O87   2.075       .  S
Fe69         O74   2.086       .  S
Fe69         O81   2.078       .  S
Fe69         O70   2.099       .  S
Fe69         O78   1.978       .  S
O70          C77   1.273       .  A
O71          C85   1.277       .  A
O72          C77   1.263       .  A
O73          C76   1.266       .  A
O74          C86   1.273       .  A
O75          C88   1.271       .  A
C76          O81   1.274       .  A
C76        C1481   1.471       .  S
C77        C1241   1.502       .  S
O79          C82   1.276       .  A
O80          C82   1.267       .  A
C82        C1265   1.481       .  S
O83          C88   1.262       .  A
O84          C86   1.270       .  A
C85          O87   1.273       .  A
C85        C1289   1.494       .  S
C86        C1313   1.500       .  S
C88        C1226   1.501       .  S
Fe89        O105   2.048       .  S
Fe89         O95   2.041       .  S
Fe89        O102   2.032       .  S
Fe89         O94   2.055       .  S
Fe89        O100   1.964       .  S
Fe90         O93   2.072       .  S
Fe90         O97   2.098       .  S
Fe90        O101   2.064       .  S
Fe90        O106   2.087       .  S
Fe90        O100   1.973       .  S
Fe91        O109   2.066       .  S
Fe91         O96   2.083       .  S
Fe91        O103   2.072       .  S
Fe91         O92   2.086       .  S
Fe91        O100   1.969       .  S
O92          C99   1.269       .  A
O93         C107   1.269       .  A
O94          C99   1.262       .  A
O95          C98   1.269       .  A
O96         C108   1.278       .  A
O97         C110   1.272       .  A
C98         O103   1.276       .  A
C98        C1634   1.468       .  S
C99        C1154   1.501       .  S
O101        C104   1.272       .  A
O102        C104   1.268       .  A
C104       C1130   1.469       .  S
O105        C110   1.264       .  A
O106        C108   1.276       .  A
C107        O109   1.268       .  A
C107       C1169   1.491       .  S
C108       C1202   1.502       .  S
C110       C1217   1.500       .  S
Fe111       O127   2.043       .  S
Fe111       O117   2.023       .  S
Fe111       O124   2.025       .  S
Fe111       O116   2.045       .  S
Fe111       O122   1.966       .  S
Fe112       O115   2.080       .  S
Fe112       O119   2.095       .  S
Fe112       O123   2.076       .  S
Fe112       O128   2.064       .  S
Fe112       O122   1.976       .  S
Fe113       O131   2.076       .  S
Fe113       O118   2.077       .  S
Fe113       O125   2.074       .  S
Fe113       O114   2.097       .  S
Fe113       O122   1.976       .  S
O114        C121   1.270       .  A
O115        C129   1.275       .  A
O116        C121   1.260       .  A
O117        C120   1.268       .  A
O118        C130   1.271       .  A
O119        C132   1.269       .  A
C120        O125   1.275       .  A
C120       C1058   1.468       .  S
C121       C1145   1.501       .  S
O123        C126   1.276       .  A
O124        C126   1.268       .  A
C126       C1034   1.464       .  S
O127        C132   1.259       .  A
O128        C130   1.268       .  A
C129        O131   1.274       .  A
C129       C1097   1.496       .  S
C130       C1082   1.485       .  S
C132       C1250   1.501       .  S
Fe133       O149   2.044       .  S
Fe133       O139   2.046       .  S
Fe133       O146   2.049       .  S
Fe133       O138   2.046       .  S
Fe133       O144   1.962       .  S
Fe134       O137   2.090       .  S
Fe134       O141   2.060       .  S
Fe134       O145   2.102       .  S
Fe134       O150   2.076       .  S
Fe134       O144   1.966       .  S
Fe135       O153   2.075       .  S
Fe135       O140   2.086       .  S
Fe135       O147   2.095       .  S
Fe135       O136   2.061       .  S
Fe135       O144   1.968       .  S
O136        C143   1.275       .  A
O137        C151   1.276       .  A
O138        C143   1.270       .  A
O139        C142   1.262       .  A
O140        C152   1.273       .  A
O141        C154   1.273       .  A
C142        O147   1.270       .  A
C142        C977   1.500       .  S
C143       C1025   1.469       .  S
O145        C148   1.273       .  A
O146        C148   1.262       .  A
C148        C962   1.504   1_554  S
O149        C154   1.270       .  A
O150        C152   1.272       .  A
C151        O153   1.274       .  A
C151       C1010   1.499       .  S
C152       C1529   1.493       .  S
C154        C938   1.470       .  S
Fe155       O171   2.024       .  S
Fe155       O161   2.052       .  S
Fe155       O168   2.051   1_545  S
Fe155       O160   2.032   1_545  S
Fe155       O166   1.974       .  S
Fe156       O159   2.075       .  S
Fe156       O163   2.068       .  S
Fe156       O167   2.093   1_545  S
Fe156       O172   2.078   1_545  S
Fe156       O166   1.981       .  S
Fe157       O175   2.075   1_565  S
Fe157       O162   2.078       .  S
Fe157       O169   2.099   1_565  S
Fe157       O158   2.066       .  S
Fe157       O166   1.977   1_565  S
O158        C165   1.273       .  A
O159        C173   1.270       .  A
O160        C165   1.266       .  A
O161        C164   1.263       .  A
O162        C174   1.273       .  A
O163        C176   1.274       .  A
C164        O169   1.272       .  A
C164        C953   1.503       .  S
C165        C890   1.465       .  S
O167        C170   1.270       .  A
O168        C170   1.263       .  A
C170        C857   1.502       .  S
O171        C176   1.266       .  A
O172        C174   1.274       .  A
C173        O175   1.272       .  A
C173        C914   1.491       .  S
C174       C1418   1.491       .  S
C176       C1121   1.459       .  S
Fe177       O193   2.023       .  S
Fe177       O183   2.041       .  S
Fe177       O190   2.041       .  S
Fe177       O182   2.021       .  S
Fe177       O188   1.959       .  S
Fe178       O181   2.067       .  S
Fe178       O185   2.084       .  S
Fe178       O189   2.098       .  S
Fe178       O194   2.078       .  S
Fe178       O188   1.973       .  S
Fe179       O197   2.079       .  S
Fe179       O184   2.065       .  S
Fe179       O191   2.094       .  S
Fe179       O180   2.078       .  S
Fe179       O188   1.975       .  S
O180        C187   1.275       .  A
O181        C195   1.270       .  A
O182        C187   1.268       .  A
O183        C186   1.259       .  A
O184        C196   1.270       .  A
O185        C198   1.278       .  A
C186        O191   1.269       .  A
C186        C986   1.499       .  S
C187        C785   1.470       .  S
O189        C192   1.270       .  A
O190        C192   1.258       .  A
C192        C866   1.501       .  S
O193        C198   1.268       .  A
O194        C196   1.274       .  A
C195        O197   1.273       .  A
C195       C1658   1.493       .  S
C196        C842   1.482       .  S
C198        C809   1.478       .  S
Fe199       O215   2.046       .  S
Fe199       O205   2.028       .  S
Fe199       O212   2.024       .  S
Fe199       O204   2.045       .  S
Fe199       O210   1.963       .  S
Fe200       O203   2.078       .  S
Fe200       O207   2.088       .  S
Fe200       O211   2.083       .  S
Fe200       O216   2.054       .  S
Fe200       O210   1.975       .  S
Fe201       O219   2.073       .  S
Fe201       O206   2.100       .  S
Fe201       O213   2.097       .  S
Fe201       O202   2.104       .  S
Fe201       O210   1.973       .  S
O202        C209   1.270       .  A
O203        C217   1.272       .  A
O204        C209   1.259       .  A
O205        C208   1.270       .  A
O206        C218   1.279       .  A
O207        C220   1.267       .  A
C208        O213   1.281       .  A
C208       C1346   1.481       .  S
C209        C746   1.506       .  S
O211        C214   1.276       .  A
O212        C214   1.268       .  A
C214        C929   1.470       .  S
O215        C220   1.261       .  A
O216        C218   1.269       .  A
C217        O219   1.270       .  A
C217       C1298   1.491       .  S
C218        C761   1.499       .  S
C220        C713   1.496   1_556  S
Fe221       O237   2.056   1_565  S
Fe221       O227   2.029   1_565  S
Fe221       O234   2.032       .  S
Fe221       O226   2.047       .  S
Fe221       O232   1.966       .  S
Fe222       O225   2.082   1_565  S
Fe222       O229   2.085   1_565  S
Fe222       O233   2.078       .  S
Fe222       O238   2.062       .  S
Fe222       O232   1.968       .  S
Fe223       O241   2.070       .  S
Fe223       O228   2.082   1_545  S
Fe223       O235   2.069       .  S
Fe223       O224   2.084   1_545  S
Fe223       O232   1.976   1_545  S
O224        C231   1.267       .  A
O225        C239   1.273       .  A
O226        C231   1.261       .  A
O227        C230   1.269       .  A
O228        C240   1.275       .  A
O229        C242   1.268       .  A
C230        O235   1.275       .  A
C230        C641   1.454       .  S
C231        C722   1.494       .  S
O233        C236   1.276       .  A
O234        C236   1.269       .  A
C236       C1610   1.470       .  S
O237        C242   1.263       .  A
O238        C240   1.271       .  A
C239        O241   1.269       .  A
C239       C1106   1.492       .  S
C240        C689   1.493       .  S
C242        C674   1.501       .  S
Fe243       O259   2.051       .  S
Fe243       O249   2.059       .  S
Fe243       O256   2.062       .  S
Fe243       O248   2.047       .  S
Fe243       O254   1.967       .  S
Fe244       O247   2.064       .  S
Fe244       O251   2.091       .  S
Fe244       O255   2.052       .  S
Fe244       O260   2.076       .  S
Fe244       O254   1.972       .  S
Fe245       O263   2.090       .  S
Fe245       O250   2.082       .  S
Fe245       O257   2.066       .  S
Fe245       O246   2.107       .  S
Fe245       O254   1.972       .  S
O246        C253   1.273       .  A
O247        C261   1.273       .  A
O248        C253   1.261       .  A
O249        C252   1.274       .  A
O250        C262   1.272       .  A
O251        C264   1.268       .  A
C252        O257   1.274       .  A
C252        C593   1.472       .  S
C253        C737   1.508       .  S
O255        C258   1.273       .  A
O256        C258   1.274       .  A
C258        C818   1.465       .  S
O259        C264   1.262       .  A
O260        C262   1.270       .  A
C261        O263   1.276       .  A
C261        C626   1.485       .  S
C262       C1193   1.493       .  S
C264        C665   1.502       .  S
Fe265       O281   2.034       .  S
Fe265       O271   2.047       .  S
Fe265       O278   2.046       .  S
Fe265       O270   2.034       .  S
Fe265       O276   1.964       .  S
Fe266       O269   2.072       .  S
Fe266       O273   2.074       .  S
Fe266       O277   2.094       .  S
Fe266       O282   2.083       .  S
Fe266       O276   1.976       .  S
Fe267       O285   2.065       .  S
Fe267       O272   2.078       .  S
Fe267       O279   2.100       .  S
Fe267       O268   2.061       .  S
Fe267       O276   1.976       .  S
O268        C275   1.272       .  A
O269        C283   1.270       .  A
O270        C275   1.269       .  A
O271        C274   1.261       .  A
O272        C284   1.274       .  A
O273        C286   1.276       .  A
C274        O279   1.271       .  A
C274        C578   1.505       .  S
C275       C1049   1.462       .  S
O277        C280   1.269       .  A
O278        C280   1.260       .  A
C280        C554   1.501       .  S
O281        C286   1.270       .  A
O282        C284   1.275       .  A
C283        O285   1.270       .  A
C283        C833   1.486       .  S
C284       C1682   1.499       .  S
C286        C521   1.473       .  S
Fe287       O303   2.028       .  S
Fe287       O293   2.052       .  S
Fe287       O300   2.052       .  S
Fe287       O292   2.028       .  S
Fe287       O298   1.974       .  S
Fe288       O291   2.082       .  S
Fe288       O295   2.065       .  S
Fe288       O299   2.093       .  S
Fe288       O304   2.077       .  S
Fe288       O298   1.977       .  S
Fe289       O307   2.078       .  S
Fe289       O294   2.080       .  S
Fe289       O301   2.097       .  S
Fe289       O290   2.068       .  S
Fe289       O298   1.978       .  S
O290        C297   1.274       .  A
O291        C305   1.274       .  A
O292        C297   1.268       .  A
O293        C296   1.263       .  A
O294        C306   1.272       .  A
O295        C308   1.273       .  A
C296        O301   1.271       .  A
C296        C569   1.504       .  S
C297        C650   1.470       .  S
O299        C302   1.270       .  A
O300        C302   1.263       .  A
C302        C482   1.502   1_554  S
O303        C308   1.267       .  A
O304        C306   1.272       .  A
C305        O307   1.274       .  A
C305       C1505   1.495       .  S
C306       C1001   1.498       .  S
C308        C506   1.460       .  S
Fe309       O325   2.040   1_655  S
Fe309       O315   2.055   1_655  S
Fe309       O322   2.047       .  S
Fe309       O314   2.043       .  S
Fe309       O320   1.972       .  S
Fe310       O313   2.072   1_655  S
Fe310       O317   2.071   1_655  S
Fe310       O321   2.095       .  S
Fe310       O326   2.082       .  S
Fe310       O320   1.977       .  S
Fe311       O329   2.082   1_655  S
Fe311       O316   2.060       .  S
Fe311       O323   2.085   1_655  S
Fe311       O312   2.078       .  S
Fe311       O320   1.975       .  S
O312        C319   1.277       .  A
O313        C327   1.271       .  A
O314        C319   1.270       .  A
O315        C318   1.263       .  A
O316        C328   1.267       .  A
O317        C330   1.274       .  A
C318        O323   1.268       .  A
C318        C545   1.500       .  S
C319        C602   1.475       .  S
O321        C324   1.270       .  A
O322        C324   1.261       .  A
C324        C473   1.502       .  S
O325        C330   1.269       .  A
O326        C328   1.274       .  A
C327        O329   1.275       .  A
C327        C905   1.487       .  S
C328       C1394   1.495       .  S
C330       C1274   1.462       .  S
Fe331       O347   2.050       .  S
Fe331       O337   2.022       .  S
Fe331       O344   2.016       .  S
Fe331       O336   2.048       .  S
Fe331       O342   1.970       .  S
Fe332       O335   2.088       .  S
Fe332       O339   2.092       .  S
Fe332       O343   2.077       .  S
Fe332       O348   2.076       .  S
Fe332       O342   1.977       .  S
Fe333       O351   2.056       .  S
Fe333       O338   2.081       .  S
Fe333       O345   2.082       .  S
Fe333       O334   2.087       .  S
Fe333       O342   1.976       .  S
O334        C341   1.267       .  A
O335        C349   1.273       .  A
O336        C341   1.261       .  A
O337        C340   1.266       .  A
O338        C350   1.276       .  A
O339        C352   1.270       .  A
C340        O345   1.277       .  A
C340        C881   1.470       .  S
C341        C458   1.497       .  S
O343        C346   1.275       .  A
O344        C346   1.264       .  A
C346        C497   1.461       .  S
O347        C352   1.262       .  A
O348        C350   1.273       .  A
C349        O351   1.267       .  A
C349        C770   1.482       .  S
C350       C1322   1.485       .  S
C352        C425   1.502   1_556  S
Fe353       O369   2.055   1_655  S
Fe353       O359   2.043   1_655  S
Fe353       O366   2.045       .  S
Fe353       O358   2.057       .  S
Fe353       O364   1.971       .  S
Fe354       O357   2.070   1_655  S
Fe354       O361   2.088   1_655  S
Fe354       O365   2.061       .  S
Fe354       O370   2.067       .  S
Fe354       O364   1.973       .  S
Fe355       O373   2.079   1_655  S
Fe355       O360   2.074       .  S
Fe355       O367   2.052   1_655  S
Fe355       O356   2.086       .  S
Fe355       O364   1.970       .  S
O356        C363   1.269       .  A
O357        C371   1.273       .  A
O358        C363   1.264       .  A
O359        C362   1.269       .  A
O360        C372   1.272       .  A
O361        C374   1.270       .  A
C362        O367   1.272       .  A
C362        C794   1.461       .  S
C363        C401   1.500       .  S
O365        C368   1.273       .  A
O366        C368   1.270       .  A
C368       C1433   1.463       .  S
O369        C374   1.263       .  A
O370        C372   1.269       .  A
C371        O373   1.272       .  A
C371       C1073   1.482       .  S
C372        C698   1.486       .  S
C374        C434   1.500       .  S
Fe375       O391   2.049       .  S
Fe375       O381   2.045       .  S
Fe375       O388   2.040       .  S
Fe375       O380   2.053       .  S
Fe375       O386   1.972       .  S
Fe376       O379   2.084       .  S
Fe376       O383   2.097       .  S
Fe376       O387   2.069       .  S
Fe376       O392   2.077       .  S
Fe376       O386   1.975       .  S
Fe377       O395   2.058       .  S
Fe377       O382   2.067       .  S
Fe377       O389   2.067       .  S
Fe377       O378   2.080       .  S
Fe377       O386   1.973       .  S
O378        C385   1.267       .  A
O379        C393   1.275       .  A
O380        C385   1.262       .  A
O381        C384   1.271       .  A
O382        C394   1.271       .  A
O383        C396   1.270       .  A
C384        O389   1.274       .  A
C384       C1370   1.473       .  S
C385        C449   1.498       .  S
O387        C390   1.275       .  A
O388        C390   1.270       .  A
C390        C530   1.464       .  S
O391        C396   1.262       .  A
O392        C394   1.271       .  A
C393        O395   1.268       .  A
C393       C1178   1.491       .  S
C394        C617   1.483       .  S
C396        C410   1.501       .  S
C397        C398   1.407       .  A
C397        C402   1.408       .  A
C397        H407   1.083       .  S
C398        C403   1.497       .  S
C398        C399   1.408       .  A
C399        C400   1.403       .  A
C399        O404   1.372       .  S
C400        C401   1.411       .  A
C400        H405   1.083       .  S
C401        C402   1.415       .  A
C402        O406   1.372       .  S
C403        C408   1.408       .  A
C403        C412   1.408       .  A
O404        H420   0.992       .  S
O406        H417   0.992       .  S
C408        C409   1.402       .  A
C408        O413   1.372       .  S
C409        C410   1.411       .  A
C409        H414   1.083       .  S
C410        C411   1.413       .  A
C411        C412   1.411       .  A
C411        O415   1.371       .  S
C412        H416   1.083       .  S
O413        H418   0.992       .  S
O415        H419   0.992       .  S
C421        C422   1.403       .  A
C421        C426   1.400       .  A
C421        H431   1.083       .  S
C422        C427   1.500       .  S
C422        C423   1.414       .  A
C423        C424   1.409       .  A
C423        O428   1.371       .  S
C424        C425   1.409       .  A
C424        H429   1.083       .  S
C425        C426   1.418       .  A
C426        O430   1.372   1_554  S
C427        C432   1.414       .  A
C427        C436   1.404       .  A
O428        H444   0.992       .  S
O430        H441   0.992       .  S
C432        C433   1.405       .  A
C432        O437   1.371       .  S
C433        C434   1.407       .  A
C433        H438   1.083       .  S
C434        C435   1.418       .  A
C435        C436   1.404       .  A
C435        O439   1.372       .  S
C436        H440   1.083       .  S
O437        H442   0.992       .  S
O439        H443   0.992       .  S
C445        C446   1.407       .  A
C445        C450   1.406       .  A
C445        H455   1.083       .  S
C446        C451   1.493   1_655  S
C446        C447   1.408       .  A
C447        C448   1.401       .  A
C447        O452   1.372   1_655  S
C448        C449   1.410       .  A
C448        H453   1.083       .  S
C449        C450   1.414       .  A
C450        O454   1.371       .  S
C451        C456   1.407   1_455  A
C451        C460   1.408       .  A
O452        H468   0.992       .  S
O454        H465   0.992       .  S
C456        C457   1.399   1_655  A
C456        O461   1.372       .  S
C457        C458   1.409       .  A
C457        H462   1.083       .  S
C458        C459   1.414       .  A
C459        C460   1.409       .  A
C459        O463   1.371       .  S
C460        H464   1.083       .  S
O461        H466   0.992       .  S
O463        H467   0.992       .  S
C469        C470   1.399       .  A
C469        C474   1.401       .  A
C469        H479   1.084       .  S
C470        C475   1.491       .  S
C470        C471   1.410       .  A
C471        C472   1.410       .  A
C471        O476   1.372       .  S
C472        C473   1.409       .  A
C472        H477   1.083       .  S
C473        C474   1.421       .  A
C474        O478   1.372       .  S
C475        C480   1.406       .  A
C475        C484   1.406       .  A
O476        H492   0.992       .  S
O478        H489   0.992       .  S
C480        C481   1.401       .  A
C480        O485   1.372       .  S
C481        C482   1.412       .  A
C481        H486   1.083   1_556  S
C482        C483   1.415       .  A
C483        C484   1.409       .  A
C483        O487   1.371       .  S
C484        H488   1.083       .  S
O485        H490   0.992       .  S
O487        H491   0.992       .  S
C493        C494   1.394   1_655  A
C493        C498   1.386   1_655  A
C493        H503   1.084       .  S
C494        C499   1.458   1_455  S
C494        C495   1.407   1_556  A
C495        C496   1.395       .  A
C495        O500   1.372       .  S
C496        C497   1.401   1_554  A
C496        H501   1.084       .  S
C497        C498   1.413       .  A
C498        O502   1.373       .  S
C499        C504   1.405   1_556  A
C499        C508   1.397   1_556  A
O500        H516   0.992       .  S
O502        H513   0.992       .  S
C504        C505   1.392       .  A
C504        O509   1.372   1_554  S
C505        C506   1.402       .  A
C505        H510   1.084       .  S
C506        C507   1.410       .  A
C507        C508   1.390       .  A
C507        O511   1.372       .  S
C508        H512   1.084   1_655  S
O509        H514   0.992       .  S
O511        H515   0.992   1_554  S
C517        C518   1.403   1_455  A
C517        C522   1.398       .  A
C517        H527   1.084       .  S
C518        C523   1.468       .  S
C518        C519   1.402       .  A
C519        C520   1.390   1_655  A
C519        O524   1.373       .  S
C520        C521   1.407       .  A
C520        H525   1.084       .  S
C521        C522   1.409       .  A
C522        O526   1.371       .  S
C523        C528   1.406       .  A
C523        C532   1.401       .  A
O524        H540   0.992       .  S
O526        H537   0.992       .  S
C528        C529   1.393       .  A
C528        O533   1.372       .  S
C529        C530   1.403       .  A
C529        H534   1.084       .  S
C530        C531   1.409       .  A
C531        C532   1.394       .  A
C531        O535   1.372       .  S
C532        H536   1.084   1_655  S
O533        H538   0.992       .  S
O535        H539   0.992       .  S
C541        C542   1.408       .  A
C541        C546   1.407       .  A
C541        H551   1.084       .  S
C542        C547   1.498       .  S
C542        C543   1.409       .  A
C543        C544   1.404       .  A
C543        O548   1.372       .  S
C544        C545   1.411       .  A
C544        H549   1.083       .  S
C545        C546   1.413       .  A
C546        O550   1.371       .  S
C547        C552   1.413       .  A
C547        C556   1.401       .  A
O548        H564   0.992       .  S
O550        H561   0.992       .  S
C552        C553   1.410       .  A
C552        O557   1.371       .  S
C553        C554   1.409       .  A
C553        H558   1.083       .  S
C554        C555   1.419       .  A
C555        C556   1.400       .  A
C555        O559   1.372       .  S
C556        H560   1.084       .  S
O557        H562   0.992       .  S
O559        H563   0.992       .  S
C565        C566   1.408       .  A
C565        C570   1.409       .  A
C565        H575   1.083       .  S
C566        C571   1.496   1_655  S
C566        C567   1.407       .  A
C567        C568   1.404       .  A
C567        O572   1.372   1_655  S
C568        C569   1.412       .  A
C568        H573   1.083       .  S
C569        C570   1.414       .  A
C570        O574   1.371       .  S
C571        C576   1.412       .  A
C571        C580   1.399   1_455  A
O572        H588   0.992       .  S
O574        H585   0.992       .  S
C576        C577   1.412       .  A
C576        O581   1.371       .  S
C577        C578   1.410       .  A
C577        H582   1.083       .  S
C578        C579   1.421       .  A
C579        C580   1.401   1_455  A
C579        O583   1.372       .  S
C580        H584   1.084       .  S
O581        H586   0.992       .  S
O583        H587   0.992       .  S
C589        C590   1.401       .  A
C589        C594   1.397       .  A
C589        H599   1.084       .  S
C590        C595   1.472       .  S
C590        C591   1.405       .  A
C591        C592   1.397       .  A
C591        O596   1.373       .  S
C592        C593   1.404       .  A
C592        H597   1.084       .  S
C593        C594   1.411       .  A
C594        O598   1.372       .  S
C595        C600   1.408       .  A
C595        C604   1.398       .  A
O596        H612   0.992       .  S
O598        H609   0.992       .  S
C600        C601   1.397       .  A
C600        O605   1.371       .  S
C601        C602   1.403       .  A
C601        H606   1.083       .  S
C602        C603   1.415       .  A
C603        C604   1.395       .  A
C603        O607   1.373       .  S
C604        H608   1.084       .  S
O605        H610   0.992       .  S
O607        H611   0.992       .  S
C613        C614   1.407       .  A
C613        C618   1.402       .  A
C613        H623   1.083       .  S
C614        C619   1.497       .  S
C614        C615   1.413       .  A
C615        C616   1.403       .  A
C615        O620   1.371       .  S
C616        C617   1.405       .  A
C616        H621   1.084       .  S
C617        C618   1.409       .  A
C618        O622   1.372       .  S
C619        C624   1.412       .  A
C619        C628   1.407       .  A
O620        H636   0.992       .  S
O622        H633   0.992       .  S
C624        C625   1.404       .  A
C624        O629   1.373       .  S
C625        C626   1.404       .  A
C625        H630   1.083       .  S
C626        C627   1.410       .  A
C627        C628   1.403       .  A
C627        O631   1.372       .  S
C628        H632   1.083       .  S
O629        H634   0.992       .  S
O631        H635   0.992       .  S
C637        C638   1.406       .  A
C637        C642   1.397       .  A
C637        H647   1.083       .  S
C638        C643   1.461       .  S
C638        C639   1.401       .  A
C639        C640   1.384       .  A
C639        O644   1.372       .  S
C640        C641   1.403       .  A
C640        H645   1.085       .  S
C641        C642   1.403       .  A
C642        O646   1.371       .  S
C643        C648   1.400       .  A
C643        C652   1.401       .  A
O644        H660   0.992       .  S
O646        H657   0.992       .  S
C648        C649   1.391       .  A
C648        O653   1.373       .  S
C649        C650   1.408       .  A
C649        H654   1.084       .  S
C650        C651   1.410       .  A
C651        C652   1.392       .  A
C651        O655   1.372       .  S
C652        H656   1.084       .  S
O653        H658   0.992       .  S
O655        H659   0.992       .  S
C661        C662   1.410       .  A
C661        C666   1.409       .  A
C661        H671   1.083       .  S
C662        C667   1.503       .  S
C662        C663   1.411       .  A
C663        C664   1.401       .  A
C663        O668   1.372       .  S
C664        C665   1.410       .  A
C664        H669   1.083       .  S
C665        C666   1.414       .  A
C666        O670   1.371       .  S
C667        C672   1.410       .  A
C667        C676   1.409       .  A
O668        H684   0.992       .  S
O670        H681   0.992       .  S
C672        C673   1.404       .  A
C672        O677   1.372       .  S
C673        C674   1.410       .  A
C673        H678   1.083       .  S
C674        C675   1.414       .  A
C675        C676   1.408       .  A
C675        O679   1.371       .  S
C676        H680   1.083       .  S
O677        H682   0.992       .  S
O679        H683   0.992       .  S
C685        C686   1.406       .  A
C685        C690   1.407       .  A
C685        H695   1.083       .  S
C686        C691   1.484       .  S
C686        C687   1.403       .  A
C687        C688   1.396       .  A
C687        O692   1.373       .  S
C688        C689   1.411       .  A
C688        H693   1.083       .  S
C689        C690   1.413       .  A
C690        O694   1.371       .  S
C691        C696   1.410       .  A
C691        C700   1.400       .  A
O692        H708   0.992       .  S
O694        H705   0.992       .  S
C696        C697   1.403       .  A
C696        O701   1.371       .  S
C697        C698   1.405       .  A
C697        H702   1.083       .  S
C698        C699   1.416       .  A
C699        C700   1.399       .  A
C699        O703   1.372       .  S
C700        H704   1.084       .  S
O701        H706   0.992       .  S
O703        H707   0.992       .  S
C709        C710   1.409       .  A
C709        C714   1.410       .  A
C709        H719   1.083       .  S
C710        C715   1.493       .  S
C710        C711   1.407       .  A
C711        C712   1.396       .  A
C711        O716   1.372       .  S
C712        C713   1.409       .  A
C712        H717   1.083   1_554  S
C713        C714   1.413       .  A
C714        O718   1.371       .  S
C715        C720   1.407       .  A
C715        C724   1.407       .  A
O716        H732   0.992       .  S
O718        H729   0.992       .  S
C720        C721   1.402       .  A
C720        O725   1.372       .  S
C721        C722   1.410       .  A
C721        H726   1.083       .  S
C722        C723   1.412       .  A
C723        C724   1.405       .  A
C723        O727   1.371       .  S
C724        H728   1.084       .  S
O725        H730   0.992       .  S
O727        H731   0.992       .  S
C733        C734   1.403       .  A
C733        C738   1.403       .  A
C733        H743   1.083   1_545  S
C734        C739   1.507   1_545  S
C734        C735   1.416       .  A
C735        C736   1.412       .  A
C735        O740   1.371       .  S
C736        C737   1.409       .  A
C736        H741   1.083       .  S
C737        C738   1.421       .  A
C738        O742   1.372       .  S
C739        C744   1.416       .  A
C739        C748   1.403       .  A
O740        H756   0.992       .  S
O742        H753   0.992       .  S
C744        C745   1.413       .  A
C744        O749   1.372       .  S
C745        C746   1.408       .  A
C745        H750   1.083       .  S
C746        C747   1.420       .  A
C747        C748   1.403       .  A
C747        O751   1.372       .  S
C748        H752   1.083   1_565  S
O749        H754   0.992       .  S
O751        H755   0.992       .  S
C757        C758   1.400       .  A
C757        C762   1.400       .  A
C757        H767   1.084       .  S
C758        C763   1.495       .  S
C758        C759   1.414       .  A
C759        C760   1.409       .  A
C759        O764   1.374       .  S
C760        C761   1.406       .  A
C760        H765   1.083       .  S
C761        C762   1.420       .  A
C762        O766   1.372       .  S
C763        C768   1.410       .  A
C763        C772   1.412       .  A
O764        H780   0.992       .  S
O766        H777   0.992       .  S
C768        C769   1.396       .  A
C768        O773   1.371       .  S
C769        C770   1.404       .  A
C769        H774   1.084       .  S
C770        C771   1.407       .  A
C771        C772   1.409       .  A
C771        O775   1.371       .  S
C772        H776   1.083       .  S
O773        H778   0.992       .  S
O775        H779   0.992       .  S
C781        C782   1.402       .  A
C781        C786   1.396       .  A
C781        H791   1.084       .  S
C782        C787   1.463       .  S
C782        C783   1.401       .  A
C783        C784   1.388       .  A
C783        O788   1.374       .  S
C784        C785   1.407       .  A
C784        H789   1.084       .  S
C785        C786   1.410       .  A
C786        O790   1.372       .  S
C787        C792   1.406       .  A
C787        C796   1.400       .  A
O788        H804   0.992       .  S
O790        H801   0.991       .  S
C792        C793   1.388       .  A
C792        O797   1.372       .  S
C793        C794   1.400       .  A
C793        H798   1.083       .  S
C794        C795   1.410       .  A
C795        C796   1.393       .  A
C795        O799   1.372       .  S
C796        H800   1.084       .  S
O797        H802   0.992       .  S
O799        H803   0.992       .  S
C805        C806   1.398       .  A
C805        C810   1.388       .  A
C805        H815   1.084   1_565  S
C806        C811   1.474   1_565  S
C806        C807   1.408       .  A
C807        C808   1.400       .  A
C807        O812   1.373       .  S
C808        C809   1.406       .  A
C808        H813   1.083       .  S
C809        C810   1.415       .  A
C810        O814   1.373       .  S
C811        C816   1.409       .  A
C811        C820   1.402       .  A
O812        H828   0.992       .  S
O814        H825   0.992       .  S
C816        C817   1.398       .  A
C816        O821   1.371   1_545  S
C817        C818   1.403       .  A
C817        H822   1.084       .  S
C818        C819   1.408       .  A
C819        C820   1.389       .  A
C819        O823   1.373       .  S
C820        H824   1.084       .  S
O821        H826   0.992       .  S
O823        H827   0.992       .  S
C829        C830   1.405       .  A
C829        C834   1.401       .  A
C829        H839   1.084       .  S
C830        C835   1.490       .  S
C830        C831   1.409       .  A
C831        C832   1.404       .  A
C831        O836   1.373       .  S
C832        C833   1.407       .  A
C832        H837   1.084       .  S
C833        C834   1.411       .  A
C834        O838   1.371       .  S
C835        C840   1.411       .  A
C835        C844   1.405       .  A
O836        H852   0.992       .  S
O838        H849   0.992       .  S
C840        C841   1.403       .  A
C840        O845   1.373       .  S
C841        C842   1.403       .  A
C841        H846   1.084       .  S
C842        C843   1.411       .  A
C843        C844   1.401       .  A
C843        O847   1.372       .  S
C844        H848   1.084       .  S
O845        H850   0.992       .  S
O847        H851   0.992       .  S
C853        C854   1.409       .  A
C853        C858   1.409       .  A
C853        H863   1.083       .  S
C854        C859   1.498       .  S
C854        C855   1.408       .  A
C855        C856   1.403       .  A
C855        O860   1.373       .  S
C856        C857   1.411       .  A
C856        H861   1.083       .  S
C857        C858   1.414       .  A
C858        O862   1.371       .  S
C859        C864   1.413       .  A
C859        C868   1.401       .  A
O860        H876   0.992       .  S
O862        H873   0.992       .  S
C864        C865   1.412       .  A
C864        O869   1.373       .  S
C865        C866   1.407       .  A
C865        H870   1.083       .  S
C866        C867   1.420       .  A
C867        C868   1.400       .  A
C867        O871   1.372       .  S
C868        H872   1.084       .  S
O869        H874   0.992       .  S
O871        H875   0.992       .  S
C877        C878   1.396       .  A
C877        C882   1.387       .  A
C877        H887   1.084       .  S
C878        C883   1.468       .  S
C878        C879   1.409       .  A
C879        C880   1.397       .  A
C879        O884   1.372       .  S
C880        C881   1.402       .  A
C880        H885   1.083       .  S
C881        C882   1.416       .  A
C882        O886   1.373       .  S
C883        C888   1.407       .  A
C883        C892   1.400       .  A
O884        H900   0.992       .  S
O886        H897   0.992       .  S
C888        C889   1.393       .  A
C888        O893   1.373       .  S
C889        C890   1.401       .  A
C889        H894   1.082       .  S
C890        C891   1.410       .  A
C891        C892   1.393       .  A
C891        O895   1.372       .  S
C892        H896   1.084       .  S
O893        H898   0.992       .  S
O895        H899   0.992       .  S
C901        C902   1.407       .  A
C901        C906   1.405       .  A
C901        H911   1.084       .  S
C902        C907   1.494       .  S
C902        C903   1.409       .  A
C903        C904   1.405       .  A
C903        O908   1.373       .  S
C904        C905   1.407       .  A
C904        H909   1.084       .  S
C905        C906   1.410       .  A
C906        O910   1.371       .  S
C907        C912   1.412       .  A
C907        C916   1.405       .  A
O908        H924   0.992       .  S
O910        H921   0.992       .  S
C912        C913   1.404       .  A
C912        O917   1.372       .  S
C913        C914   1.406       .  A
C913        H918   1.083       .  S
C914        C915   1.413       .  A
C915        C916   1.404       .  A
C915        O919   1.372       .  S
C916        H920   1.084       .  S
O917        H922   0.992       .  S
O919        H923   0.992       .  S
C925        C926   1.403   1_554  A
C925        C930   1.397   1_554  A
C925        H935   1.083       .  S
C926        C931   1.465   1_565  S
C926        C927   1.402       .  A
C927        C928   1.388       .  A
C927        O932   1.372   1_565  S
C928        C929   1.407       .  A
C928        H933   1.084       .  S
C929        C930   1.409       .  A
C930        O934   1.371   1_556  S
C931        C936   1.402   1_556  A
C931        C940   1.401       .  A
O932        H948   0.992       .  S
O934        H945   0.992       .  S
C936        C937   1.394       .  A
C936        O941   1.372   1_544  S
C937        C938   1.407       .  A
C937        H942   1.084       .  S
C938        C939   1.410       .  A
C939        C940   1.393   1_554  A
C939        O943   1.372       .  S
C940        H944   1.084       .  S
O941        H946   0.992   1_556  S
O943        H947   0.992       .  S
C949        C950   1.409       .  A
C949        C954   1.410       .  A
C949        H959   1.083       .  S
C950        C955   1.500       .  S
C950        C951   1.409       .  A
C951        C952   1.404       .  A
C951        O956   1.372       .  S
C952        C953   1.412       .  A
C952        H957   1.083       .  S
C953        C954   1.413       .  A
C954        O958   1.371       .  S
C955        C960   1.413       .  A
C955        C964   1.401       .  A
O956        H972   0.992       .  S
O958        H969   0.992       .  S
C960        C961   1.411       .  A
C960        O965   1.371       .  S
C961        C962   1.409       .  A
C961        H966   1.083       .  S
C962        C963   1.420   1_556  A
C963        C964   1.401   1_554  A
C963        O967   1.372       .  S
C964        H968   1.084       .  S
O965        H970   0.992       .  S
O967        H971   0.992       .  S
C973        C974   1.409       .  A
C973        C978   1.407       .  A
C973        H983   1.084       .  S
C974        C979   1.497   1_545  S
C974        C975   1.408   1_545  A
C975        C976   1.403   1_565  A
C975        O980   1.373       .  S
C976        C977   1.412       .  A
C976        H981   1.083       .  S
C977        C978   1.412       .  A
C978        O982   1.371       .  S
C979        C984   1.414       .  A
C979        C988   1.400       .  A
O980        H996   0.992       .  S
O982        H993   0.992       .  S
C984        C985   1.410       .  A
C984        O989   1.371       .  S
C985        C986   1.408       .  A
C985        H990   1.083       .  S
C986        C987   1.419       .  A
C987        C988   1.398       .  A
C987        O991   1.372       .  S
C988        H992   1.084   1_565  S
O989        H994   0.992       .  S
O991        H995   0.992       .  S
C997        C998   1.407       .  A
C997       C1002   1.408       .  A
C997       H1007   1.083       .  S
C998       C1003   1.497       .  S
C998        C999   1.409       .  A
C999       C1000   1.402       .  A
C999       O1004   1.372       .  S
C1000      C1001   1.409       .  A
C1000      H1005   1.083       .  S
C1001      C1002   1.415       .  A
C1002      O1006   1.372       .  S
C1003      C1008   1.409       .  A
C1003      C1012   1.407       .  A
O1004      H1020   0.992       .  S
O1006      H1017   0.992       .  S
C1008      C1009   1.401       .  A
C1008      O1013   1.372       .  S
C1009      C1010   1.409       .  A
C1009      H1014   1.083       .  S
C1010      C1011   1.415       .  A
C1011      C1012   1.408       .  A
C1011      O1015   1.371       .  S
C1012      H1016   1.083       .  S
O1013      H1018   0.992       .  S
O1015      H1019   0.992       .  S
C1021      C1022   1.398       .  A
C1021      C1026   1.393       .  A
C1021      H1031   1.084       .  S
C1022      C1027   1.464       .  S
C1022      C1023   1.407       .  A
C1023      C1024   1.391       .  A
C1023      O1028   1.372       .  S
C1024      C1025   1.403       .  A
C1024      H1029   1.084       .  S
C1025      C1026   1.413       .  A
C1026      O1030   1.372       .  S
C1027      C1032   1.409       .  A
C1027      C1036   1.394       .  A
O1028      H1044   0.992       .  S
O1030      H1041   0.992       .  S
C1032      C1033   1.399       .  A
C1032      O1037   1.372       .  S
C1033      C1034   1.401       .  A
C1033      H1038   1.083       .  S
C1034      C1035   1.414       .  A
C1035      C1036   1.385       .  A
C1035      O1039   1.373       .  S
C1036      H1040   1.084       .  S
O1037      H1042   0.992       .  S
O1039      H1043   0.992       .  S
C1045      C1046   1.402       .  A
C1045      C1050   1.393       .  A
C1045      H1055   1.084       .  S
C1046      C1051   1.465       .  S
C1046      C1047   1.404       .  A
C1047      C1048   1.389       .  A
C1047      O1052   1.372       .  S
C1048      C1049   1.403       .  A
C1048      H1053   1.084       .  S
C1049      C1050   1.409       .  A
C1050      O1054   1.372       .  S
C1051      C1056   1.402       .  A
C1051      C1060   1.403       .  A
O1052      H1068   0.992       .  S
O1054      H1065   0.992       .  S
C1056      C1057   1.388       .  A
C1056      O1061   1.373       .  S
C1057      C1058   1.406       .  A
C1057      H1062   1.084       .  S
C1058      C1059   1.409       .  A
C1059      C1060   1.395       .  A
C1059      O1063   1.372       .  S
C1060      H1064   1.084       .  S
O1061      H1066   0.992       .  S
O1063      H1067   0.992       .  S
C1069      C1070   1.405       .  A
C1069      C1074   1.403       .  A
C1069      H1079   1.083       .  S
C1070      C1075   1.492   1_565  S
C1070      C1071   1.412       .  A
C1071      C1072   1.402       .  A
C1071      O1076   1.372       .  S
C1072      C1073   1.403       .  A
C1072      H1077   1.084       .  S
C1073      C1074   1.410       .  A
C1074      O1078   1.371       .  S
C1075      C1080   1.412       .  A
C1075      C1084   1.404       .  A
O1076      H1092   0.992       .  S
O1078      H1089   0.992       .  S
C1080      C1081   1.406       .  A
C1080      O1085   1.372       .  S
C1081      C1082   1.405       .  A
C1081      H1086   1.084       .  S
C1082      C1083   1.412       .  A
C1083      C1084   1.400       .  A
C1083      O1087   1.372       .  S
C1084      H1088   1.083       .  S
O1085      H1090   0.992       .  S
O1087      H1091   0.992       .  S
C1093      C1094   1.407       .  A
C1093      C1098   1.405       .  A
C1093      H1103   1.084       .  S
C1094      C1099   1.493   1_455  S
C1094      C1095   1.408       .  A
C1095      C1096   1.403       .  A
C1095      O1100   1.372       .  S
C1096      C1097   1.410       .  A
C1096      H1101   1.083       .  S
C1097      C1098   1.413       .  A
C1098      O1102   1.371       .  S
C1099      C1104   1.412       .  A
C1099      C1108   1.402       .  A
O1100      H1116   0.992       .  S
O1102      H1113   0.992       .  S
C1104      C1105   1.407       .  A
C1104      O1109   1.371       .  S
C1105      C1106   1.406       .  A
C1105      H1110   1.083       .  S
C1106      C1107   1.416       .  A
C1107      C1108   1.400       .  A
C1107      O1111   1.372       .  S
C1108      H1112   1.084       .  S
O1109      H1114   0.992       .  S
O1111      H1115   0.992       .  S
C1117      C1118   1.396       .  A
C1117      C1122   1.389       .  A
C1117      H1127   1.084       .  S
C1118      C1123   1.462       .  S
C1118      C1119   1.408       .  A
C1119      C1120   1.395       .  A
C1119      O1124   1.373       .  S
C1120      C1121   1.399       .  A
C1120      H1125   1.084       .  S
C1121      C1122   1.411       .  A
C1122      O1126   1.373       .  S
C1123      C1128   1.402       .  A
C1123      C1132   1.401       .  A
O1124      H1140   0.992       .  S
O1126      H1137   0.992       .  S
C1128      C1129   1.388       .  A
C1128      O1133   1.372       .  S
C1129      C1130   1.406       .  A
C1129      H1134   1.084       .  S
C1130      C1131   1.410       .  A
C1131      C1132   1.395       .  A
C1131      O1135   1.371       .  S
C1132      H1136   1.084       .  S
O1133      H1138   0.992       .  S
O1135      H1139   0.992       .  S
C1141      C1142   1.401       .  A
C1141      C1146   1.400       .  A
C1141      H1151   1.083       .  S
C1142      C1147   1.498       .  S
C1142      C1143   1.413       .  A
C1143      C1144   1.410       .  A
C1143      O1148   1.371       .  S
C1144      C1145   1.408       .  A
C1144      H1149   1.083       .  S
C1145      C1146   1.420       .  A
C1146      O1150   1.372       .  S
C1147      C1152   1.412       .  A
C1147      C1156   1.403       .  A
O1148      H1164   0.992       .  S
O1150      H1161   0.992       .  S
C1152      C1153   1.408       .  A
C1152      O1157   1.372       .  S
C1153      C1154   1.409       .  A
C1153      H1158   1.083       .  S
C1154      C1155   1.418       .  A
C1155      C1156   1.403       .  A
C1155      O1159   1.371       .  S
C1156      H1160   1.083       .  S
O1157      H1162   0.992       .  S
O1159      H1163   0.992       .  S
C1165      C1166   1.407       .  A
C1165      C1170   1.405       .  A
C1165      H1175   1.084       .  S
C1166      C1171   1.487       .  S
C1166      C1167   1.406       .  A
C1167      C1168   1.399       .  A
C1167      O1172   1.373       .  S
C1168      C1169   1.408       .  A
C1168      H1173   1.083       .  S
C1169      C1170   1.413       .  A
C1170      O1174   1.371       .  S
C1171      C1176   1.411       .  A
C1171      C1180   1.399       .  A
O1172      H1188   0.992       .  S
O1174      H1185   0.992       .  S
C1176      C1177   1.408       .  A
C1176      O1181   1.373       .  S
C1177      C1178   1.406       .  A
C1177      H1182   1.083       .  S
C1178      C1179   1.418       .  A
C1179      C1180   1.397       .  A
C1179      O1183   1.372       .  S
C1180      H1184   1.084       .  S
O1181      H1186   0.992       .  S
O1183      H1187   0.992       .  S
C1189      C1190   1.409       .  A
C1189      C1194   1.407       .  A
C1189      H1199   1.083       .  S
C1190      C1195   1.497       .  S
C1190      C1191   1.410       .  A
C1191      C1192   1.403       .  A
C1191      O1196   1.373       .  S
C1192      C1193   1.408       .  A
C1192      H1197   1.084       .  S
C1193      C1194   1.411       .  A
C1194      O1198   1.371       .  S
C1195      C1200   1.413       .  A
C1195      C1204   1.402       .  A
O1196      H1212   0.992       .  S
O1198      H1209   0.992       .  S
C1200      C1201   1.408       .  A
C1200      O1205   1.371       .  S
C1201      C1202   1.410       .  A
C1201      H1206   1.083       .  S
C1202      C1203   1.418       .  A
C1203      C1204   1.402       .  A
C1203      O1207   1.371       .  S
C1204      H1208   1.084       .  S
O1205      H1210   0.992       .  S
O1207      H1211   0.992       .  S
C1213      C1214   1.411       .  A
C1213      C1218   1.412       .  A
C1213      H1223   1.083       .  S
C1214      C1219   1.500       .  S
C1214      C1215   1.408       .  A
C1215      C1216   1.398       .  A
C1215      O1220   1.372       .  S
C1216      C1217   1.409       .  A
C1216      H1221   1.083       .  S
C1217      C1218   1.414       .  A
C1218      O1222   1.371       .  S
C1219      C1224   1.408       .  A
C1219      C1228   1.409       .  A
O1220      H1236   0.992       .  S
O1222      H1233   0.992       .  S
C1224      C1225   1.403       .  A
C1224      O1229   1.372       .  S
C1225      C1226   1.412       .  A
C1225      H1230   1.083       .  S
C1226      C1227   1.413       .  A
C1227      C1228   1.408       .  A
C1227      O1231   1.371       .  S
C1228      H1232   1.083       .  S
O1229      H1234   0.992       .  S
O1231      H1235   0.992       .  S
C1237      C1238   1.401       .  A
C1237      C1242   1.401   1_554  A
C1237      H1247   1.083       .  S
C1238      C1243   1.497       .  S
C1238      C1239   1.413       .  A
C1239      C1240   1.409       .  A
C1239      O1244   1.371       .  S
C1240      C1241   1.408   1_554  A
C1240      H1245   1.083       .  S
C1241      C1242   1.420       .  A
C1242      O1246   1.372       .  S
C1243      C1248   1.413       .  A
C1243      C1252   1.402       .  A
O1244      H1260   0.992       .  S
O1246      H1257   0.992       .  S
C1248      C1249   1.411       .  A
C1248      O1253   1.372       .  S
C1249      C1250   1.408       .  A
C1249      H1254   1.083       .  S
C1250      C1251   1.419       .  A
C1251      C1252   1.401       .  A
C1251      O1255   1.372       .  S
C1252      H1256   1.084       .  S
O1253      H1258   0.992       .  S
O1255      H1259   0.992       .  S
C1261      C1262   1.397       .  A
C1261      C1266   1.391       .  A
C1261      H1271   1.083       .  S
C1262      C1267   1.476       .  S
C1262      C1263   1.410       .  A
C1263      C1264   1.399       .  A
C1263      O1268   1.372       .  S
C1264      C1265   1.405       .  A
C1264      H1269   1.083       .  S
C1265      C1266   1.418       .  A
C1266      O1270   1.373       .  S
C1267      C1272   1.409       .  A
C1267      C1276   1.404       .  A
O1268      H1284   0.992       .  S
O1270      H1281   0.992       .  S
C1272      C1273   1.397       .  A
C1272      O1277   1.373       .  S
C1273      C1274   1.401       .  A
C1273      H1278   1.084       .  S
C1274      C1275   1.406       .  A
C1275      C1276   1.394       .  A
C1275      O1279   1.372       .  S
C1276      H1280   1.084       .  S
O1277      H1282   0.992       .  S
O1279      H1283   0.992       .  S
C1285      C1286   1.404       .  A
C1285      C1290   1.403       .  A
C1285      H1295   1.083       .  S
C1286      C1291   1.499       .  S
C1286      C1287   1.414       .  A
C1287      C1288   1.406       .  A
C1287      O1292   1.371       .  S
C1288      C1289   1.406       .  A
C1288      H1293   1.083       .  S
C1289      C1290   1.414       .  A
C1290      O1294   1.371       .  S
C1291      C1296   1.413       .  A
C1291      C1300   1.406       .  A
O1292      H1308   0.992       .  S
O1294      H1305   0.991       .  S
C1296      C1297   1.406       .  A
C1296      O1301   1.372       .  S
C1297      C1298   1.405       .  A
C1297      H1302   1.084       .  S
C1298      C1299   1.412       .  A
C1299      C1300   1.404       .  A
C1299      O1303   1.372       .  S
C1300      H1304   1.083       .  S
O1301      H1306   0.992       .  S
O1303      H1307   0.992       .  S
C1309      C1310   1.408       .  A
C1309      C1314   1.408       .  A
C1309      H1319   1.083       .  S
C1310      C1315   1.500       .  S
C1310      C1311   1.410       .  A
C1311      C1312   1.403       .  A
C1311      O1316   1.372       .  S
C1312      C1313   1.409       .  A
C1312      H1317   1.083       .  S
C1313      C1314   1.414       .  A
C1314      O1318   1.371       .  S
C1315      C1320   1.412       .  A
C1315      C1324   1.409       .  A
O1316      H1332   0.992       .  S
O1318      H1329   0.992       .  S
C1320      C1321   1.405       .  A
C1320      O1325   1.371       .  S
C1321      C1322   1.406       .  A
C1321      H1326   1.084       .  S
C1322      C1323   1.408       .  A
C1323      C1324   1.405       .  A
C1323      O1327   1.372       .  S
C1324      H1328   1.083       .  S
O1325      H1330   0.992       .  S
O1327      H1331   0.992       .  S
C1333      C1334   1.403       .  A
C1333      C1338   1.395       .  A
C1333      H1343   1.083       .  S
C1334      C1339   1.478       .  S
C1334      C1335   1.408       .  A
C1335      C1336   1.396       .  A
C1335      O1340   1.372       .  S
C1336      C1337   1.404       .  A
C1336      H1341   1.084       .  S
C1337      C1338   1.411       .  A
C1338      O1342   1.373       .  S
C1339      C1344   1.404       .  A
C1339      C1348   1.406       .  A
O1340      H1356   0.992       .  S
O1342      H1353   0.992       .  S
C1344      C1345   1.392       .  A
C1344      O1349   1.373       .  S
C1345      C1346   1.409       .  A
C1345      H1350   1.083       .  S
C1346      C1347   1.409       .  A
C1347      C1348   1.400       .  A
C1347      O1351   1.371       .  S
C1348      H1352   1.083       .  S
O1349      H1354   0.992       .  S
O1351      H1355   0.992       .  S
C1357      C1358   1.403       .  A
C1357      C1362   1.397       .  A
C1357      H1367   1.083       .  S
C1358      C1363   1.475       .  S
C1358      C1359   1.408       .  A
C1359      C1360   1.392       .  A
C1359      O1364   1.372       .  S
C1360      C1361   1.403       .  A
C1360      H1365   1.084       .  S
C1361      C1362   1.410       .  A
C1362      O1366   1.372       .  S
C1363      C1368   1.408       .  A
C1363      C1372   1.400       .  A
O1364      H1380   0.992       .  S
O1366      H1377   0.992       .  S
C1368      C1369   1.398       .  A
C1368      O1373   1.372       .  S
C1369      C1370   1.404       .  A
C1369      H1374   1.084       .  S
C1370      C1371   1.412       .  A
C1371      C1372   1.391       .  A
C1371      O1375   1.372       .  S
C1372      H1376   1.084       .  S
O1373      H1378   0.992       .  S
O1375      H1379   0.992       .  S
C1381      C1382   1.403       .  A
C1381      C1386   1.397       .  A
C1381      H1391   1.084       .  S
C1382      C1387   1.491   1_565  S
C1382      C1383   1.413       .  A
C1383      C1384   1.405       .  A
C1383      O1388   1.371       .  S
C1384      C1385   1.405       .  A
C1384      H1389   1.083       .  S
C1385      C1386   1.413       .  A
C1386      O1390   1.372       .  S
C1387      C1392   1.412       .  A
C1387      C1396   1.401       .  A
O1388      H1404   0.992       .  S
O1390      H1401   0.992       .  S
C1392      C1393   1.403       .  A
C1392      O1397   1.372       .  S
C1393      C1394   1.407       .  A
C1393      H1398   1.083       .  S
C1394      C1395   1.419       .  A
C1395      C1396   1.400       .  A
C1395      O1399   1.372       .  S
C1396      H1400   1.083       .  S
O1397      H1402   0.992       .  S
O1399      H1403   0.992       .  S
C1405      C1406   1.405       .  A
C1405      C1410   1.401       .  A
C1405      H1415   1.084       .  S
C1406      C1411   1.493   1_655  S
C1406      C1407   1.411       .  A
C1407      C1408   1.408       .  A
C1407      O1412   1.373       .  S
C1408      C1409   1.407       .  A
C1408      H1413   1.084       .  S
C1409      C1410   1.409       .  A
C1410      O1414   1.372       .  S
C1411      C1416   1.412       .  A
C1411      C1420   1.403       .  A
O1412      H1428   0.992       .  S
O1414      H1425   0.992       .  S
C1416      C1417   1.406       .  A
C1416      O1421   1.371       .  S
C1417      C1418   1.407       .  A
C1417      H1422   1.083       .  S
C1418      C1419   1.412       .  A
C1419      C1420   1.401       .  A
C1419      O1423   1.371       .  S
C1420      H1424   1.084       .  S
O1421      H1426   0.992       .  S
O1423      H1427   0.992       .  S
C1429      C1430   1.401       .  A
C1429      C1434   1.395       .  A
C1429      H1439   1.084       .  S
C1430      C1435   1.470       .  S
C1430      C1431   1.407       .  A
C1431      C1432   1.395       .  A
C1431      O1436   1.373       .  S
C1432      C1433   1.402       .  A
C1432      H1437   1.084       .  S
C1433      C1434   1.408       .  A
C1434      O1438   1.372       .  S
C1435      C1440   1.401       .  A
C1435      C1444   1.404       .  A
O1436      H1452   0.992       .  S
O1438      H1449   0.992       .  S
C1440      C1441   1.388       .  A
C1440      O1445   1.372       .  S
C1441      C1442   1.409       .  A
C1441      H1446   1.083       .  S
C1442      C1443   1.410       .  A
C1443      C1444   1.401       .  A
C1443      O1447   1.371       .  S
C1444      H1448   1.084       .  S
O1445      H1450   0.992       .  S
O1447      H1451   0.992       .  S
C1453      C1454   1.409       .  A
C1453      C1458   1.410       .  A
C1453      H1463   1.083       .  S
C1454      C1459   1.496       .  S
C1454      C1455   1.408       .  A
C1455      C1456   1.401       .  A
C1455      O1460   1.373       .  S
C1456      C1457   1.410       .  A
C1456      H1461   1.083   1_556  S
C1457      C1458   1.413       .  A
C1458      O1462   1.371       .  S
C1459      C1464   1.413       .  A
C1459      C1468   1.402       .  A
O1460      H1476   0.992       .  S
O1462      H1473   0.992       .  S
C1464      C1465   1.407       .  A
C1464      O1469   1.371       .  S
C1465      C1466   1.408       .  A
C1465      H1470   1.083       .  S
C1466      C1467   1.416       .  A
C1467      C1468   1.403       .  A
C1467      O1471   1.372       .  S
C1468      H1472   1.084       .  S
O1469      H1474   0.992       .  S
O1471      H1475   0.992       .  S
C1477      C1478   1.400       .  A
C1477      C1482   1.396       .  A
C1477      H1487   1.084       .  S
C1478      C1483   1.474   1_556  S
C1478      C1479   1.408       .  A
C1479      C1480   1.398       .  A
C1479      O1484   1.373       .  S
C1480      C1481   1.402       .  A
C1480      H1485   1.082       .  S
C1481      C1482   1.411       .  A
C1482      O1486   1.373       .  S
C1483      C1488   1.404       .  A
C1483      C1492   1.404   1_554  A
O1484      H1500   0.992   1_556  S
O1486      H1497   0.992       .  S
C1488      C1489   1.392       .  A
C1488      O1493   1.372       .  S
C1489      C1490   1.407       .  A
C1489      H1494   1.084       .  S
C1490      C1491   1.410   1_554  A
C1491      C1492   1.400       .  A
C1491      O1495   1.371       .  S
C1492      H1496   1.084       .  S
O1493      H1498   0.992       .  S
O1495      H1499   0.992       .  S
C1501      C1502   1.407       .  A
C1501      C1506   1.405       .  A
C1501      H1511   1.083       .  S
C1502      C1507   1.498       .  S
C1502      C1503   1.411       .  A
C1503      C1504   1.407       .  A
C1503      O1508   1.373       .  S
C1504      C1505   1.408       .  A
C1504      H1509   1.084       .  S
C1505      C1506   1.413       .  A
C1506      O1510   1.371       .  S
C1507      C1512   1.413       .  A
C1507      C1516   1.407       .  A
O1508      H1524   0.992       .  S
O1510      H1521   0.992       .  S
C1512      C1513   1.405       .  A
C1512      O1517   1.371       .  S
C1513      C1514   1.405       .  A
C1513      H1518   1.084       .  S
C1514      C1515   1.412       .  A
C1515      C1516   1.406       .  A
C1515      O1519   1.372       .  S
C1516      H1520   1.083       .  S
O1517      H1522   0.992       .  S
O1519      H1523   0.992       .  S
C1525      C1526   1.408       .  A
C1525      C1530   1.408       .  A
C1525      H1535   1.083       .  S
C1526      C1531   1.495       .  S
C1526      C1527   1.409       .  A
C1527      C1528   1.401       .  A
C1527      O1532   1.372       .  S
C1528      C1529   1.408       .  A
C1528      H1533   1.083       .  S
C1529      C1530   1.412       .  A
C1530      O1534   1.371       .  S
C1531      C1536   1.407       .  A
C1531      C1540   1.407       .  A
O1532      H1548   0.992       .  S
O1534      H1545   0.992       .  S
C1536      C1537   1.402       .  A
C1536      O1541   1.372       .  S
C1537      C1538   1.412       .  A
C1537      H1542   1.083       .  S
C1538      C1539   1.414       .  A
C1539      C1540   1.408       .  A
C1539      O1543   1.371       .  S
C1540      H1544   1.083       .  S
O1541      H1546   0.992       .  S
O1543      H1547   0.992       .  S
C1549      C1550   1.402       .  A
C1549      C1554   1.404       .  A
C1549      H1559   1.084       .  S
C1550      C1555   1.502       .  S
C1550      C1551   1.414       .  A
C1551      C1552   1.412       .  A
C1551      O1556   1.373       .  S
C1552      C1553   1.408       .  A
C1552      H1557   1.083       .  S
C1553      C1554   1.420       .  A
C1554      O1558   1.372       .  S
C1555      C1560   1.408       .  A
C1555      C1564   1.411       .  A
O1556      H1572   0.992       .  S
O1558      H1569   0.992       .  S
C1560      C1561   1.399       .  A
C1560      O1565   1.372       .  S
C1561      C1562   1.412       .  A
C1561      H1566   1.083       .  S
C1562      C1563   1.414       .  A
C1563      C1564   1.414       .  A
C1563      O1567   1.371       .  S
C1564      H1568   1.083       .  S
O1565      H1570   0.992       .  S
O1567      H1571   0.992       .  S
C1573      C1574   1.403       .  A
C1573      C1578   1.403       .  A
C1573      H1583   1.084       .  S
C1574      C1579   1.499       .  S
C1574      C1575   1.412       .  A
C1575      C1576   1.409       .  A
C1575      O1580   1.373       .  S
C1576      C1577   1.408       .  A
C1576      H1581   1.083       .  S
C1577      C1578   1.418       .  A
C1578      O1582   1.372       .  S
C1579      C1584   1.410       .  A
C1579      C1588   1.408       .  A
O1580      H1596   0.992       .  S
O1582      H1593   0.992       .  S
C1584      C1585   1.400       .  A
C1584      O1589   1.372       .  S
C1585      C1586   1.410       .  A
C1585      H1590   1.083       .  S
C1586      C1587   1.415       .  A
C1587      C1588   1.410       .  A
C1587      O1591   1.371       .  S
C1588      H1592   1.083       .  S
O1589      H1594   0.992       .  S
O1591      H1595   0.992       .  S
C1597      C1598   1.402       .  A
C1597      C1602   1.394       .  A
C1597      H1607   1.084       .  S
C1598      C1603   1.472       .  S
C1598      C1599   1.405       .  A
C1599      C1600   1.395       .  A
C1599      O1604   1.372       .  S
C1600      C1601   1.406       .  A
C1600      H1605   1.084       .  S
C1601      C1602   1.409       .  A
C1602      O1606   1.371       .  S
C1603      C1608   1.404       .  A
C1603      C1612   1.405       .  A
O1604      H1620   0.992       .  S
O1606      H1617   0.992       .  S
C1608      C1609   1.391       .  A
C1608      O1613   1.373       .  S
C1609      C1610   1.406       .  A
C1609      H1614   1.084       .  S
C1610      C1611   1.407       .  A
C1611      C1612   1.399       .  A
C1611      O1615   1.371       .  S
C1612      H1616   1.083       .  S
O1613      H1618   0.992       .  S
O1615      H1619   0.992       .  S
C1621      C1622   1.400       .  A
C1621      C1626   1.393       .  A
C1621      H1631   1.083       .  S
C1622      C1627   1.472       .  S
C1622      C1623   1.408       .  A
C1623      C1624   1.395       .  A
C1623      O1628   1.372       .  S
C1624      C1625   1.405       .  A
C1624      H1629   1.084       .  S
C1625      C1626   1.412       .  A
C1626      O1630   1.372       .  S
C1627      C1632   1.410       .  A
C1627      C1636   1.398       .  A
O1628      H1644   0.992       .  S
O1630      H1641   0.992       .  S
C1632      C1633   1.399       .  A
C1632      O1637   1.372       .  S
C1633      C1634   1.401       .  A
C1633      H1638   1.084       .  S
C1634      C1635   1.413       .  A
C1635      C1636   1.390       .  A
C1635      O1639   1.373       .  S
C1636      H1640   1.084       .  S
O1637      H1642   0.992       .  S
O1639      H1643   0.992       .  S
C1645      C1646   1.406       .  A
C1645      C1650   1.403       .  A
C1645      H1655   1.084       .  S
C1646      C1651   1.494       .  S
C1646      C1647   1.411       .  A
C1647      C1648   1.407       .  A
C1647      O1652   1.373       .  S
C1648      C1649   1.405       .  A
C1648      H1653   1.082       .  S
C1649      C1650   1.409       .  A
C1650      O1654   1.372       .  S
C1651      C1656   1.412       .  A
C1651      C1660   1.404       .  A
O1652      H1668   0.992       .  S
O1654      H1665   0.992       .  S
C1656      C1657   1.406       .  A
C1656      O1661   1.372       .  S
C1657      C1658   1.407       .  A
C1657      H1662   1.083       .  S
C1658      C1659   1.415       .  A
C1659      C1660   1.402       .  A
C1659      O1663   1.372       .  S
C1660      H1664   1.084       .  S
O1661      H1666   0.992       .  S
O1663      H1667   0.992       .  S
C1669      C1670   1.409       .  A
C1669      C1674   1.408       .  A
C1669      H1679   1.083       .  S
C1670      C1675   1.495       .  S
C1670      C1671   1.409       .  A
C1671      C1672   1.399       .  A
C1671      O1676   1.372       .  S
C1672      C1673   1.407       .  A
C1672      H1677   1.084       .  S
C1673      C1674   1.410       .  A
C1674      O1678   1.371       .  S
C1675      C1680   1.407       .  A
C1675      C1684   1.407       .  A
O1676      H1692   0.992       .  S
O1678      H1689   0.992       .  S
C1680      C1681   1.402       .  A
C1680      O1685   1.372       .  S
C1681      C1682   1.411       .  A
C1681      H1686   1.083       .  S
C1682      C1683   1.414       .  A
C1683      C1684   1.406       .  A
C1683      O1687   1.371       .  S
C1684      H1688   1.083       .  S
O1685      H1690   0.992       .  S
O1687      H1691   0.992       .  S
