geometry optimzed in LAMMPS
_audit_creation_date              2020-12-01 
_audit_creation_method            'lammps2cif' 
_symmetry_space_group_name_H-M    'P1' 
_symmetry_Int_Tables_number       1 
_symmetry_cell_setting            triclinic 
loop_ 
_symmetry_equiv_pos_as_xyz 
  x,y,z 
_cell_length_a                    47.73739223 
_cell_length_b                    47.68283954833013 
_cell_length_c                    48.04973252047997 
_cell_angle_alpha                 89.95394262436943 
_cell_angle_beta                  90.05514077203404 
_cell_angle_gamma                 89.99307448466031 
loop_ 
_atom_site_label 
_atom_site_type_symbol 
_atom_site_fract_x 
_atom_site_fract_y 
_atom_site_fract_z 
_atom_site_charge 
O1          O  0.21191994  0.81759046  0.55886566    -0.85000
O2          O  0.23191844  0.76427403  0.55910474    -0.82000
C3          C  0.23130609  0.73790390  0.55951026     0.98500
O4          O  0.21270759  0.72452148  0.54623582    -0.82000
O5          O  0.16273010  0.73377546  0.57220397    -0.84700
C6          C  0.14144061  0.74610837  0.58137796     1.03000
O7          O  0.13214599  0.76770795  0.56913409    -0.77500
O8          O  0.17332831  0.80626791  0.58113448    -0.77600
C9          C  0.19684184  0.81827821  0.58061704     1.03000
O10         O  0.20065022  0.81176861  0.49984802    -0.85000
O11         O  0.22541499  0.75916283  0.49986278    -0.82000
C12         C  0.21063090  0.74181297  0.48629016     0.98500
O13         O  0.18612958  0.73609149  0.49396466    -0.82100
O14         O  0.13522127  0.74178042  0.51851721    -0.84700
C15         C  0.12541077  0.76295649  0.50581753     1.03000
O16         O  0.13299242  0.78736589  0.51243029    -0.77500
O17         O  0.16830350  0.83016358  0.52642011    -0.77600
C18         C  0.18409492  0.83156803  0.50532983     1.02900
Cr19       Cr  0.21485544  0.78719402  0.52975019     1.93700
Cr20       Cr  0.17460565  0.73688515  0.53310216     1.93200
Cr21       Cr  0.15368049  0.79611218  0.54654430     1.39100
O22         O  0.18116115  0.77329415  0.53640423    -1.22700
O23         O  0.32250765  0.92694125  0.77520896    -0.85000
O24         O  0.26687138  0.92246895  0.76406096    -0.82000
C25         C  0.24083380  0.92066875  0.76765203     0.98500
O26         O  0.22910955  0.93345896  0.78774070    -0.82000
O27         O  0.24544504  0.90618386  0.83489411    -0.84700
C28         C  0.26109169  0.89565546  0.85311134     1.03000
O29         O  0.28429975  0.90707719  0.85910685    -0.77500
O30         O  0.31665557  0.90066179  0.81208297    -0.77600
C31         C  0.32638873  0.90397460  0.78799327     1.03000
O32         O  0.31275801  0.98480406  0.79119880    -0.85000
O33         O  0.25765612  0.98110906  0.77271535    -0.82000
C34         C  0.24365887  0.99457319  0.79068141     0.98500
O35         O  0.24292310  0.98616693  0.81541034    -0.82100
O36         O  0.25590206  0.95912961  0.86361132    -0.84700
C37         C  0.27869375  0.96938665  0.87284274     1.03000
O38         O  0.30168416  0.96446724  0.86110128    -0.77500
O39         O  0.33826817  0.95740997  0.81783250    -0.77600
C40         C  0.33505721  0.98020882  0.80443217     1.02900
Cr41       Cr  0.28939963  0.95333254  0.77842566     1.93700
Cr42       Cr  0.24598214  0.94607486  0.82462234     1.93200
Cr43       Cr  0.30819360  0.93315599  0.83577324     1.39100
O44         O  0.28106465  0.94425320  0.81309397    -1.22700
O45         O  0.43996585  0.69982722  0.66470743    -0.85000
O46         O  0.43830546  0.71838831  0.71785489    -0.82000
C47         C  0.43537100  0.71691418  0.74380868     0.98500
O48         O  0.44583864  0.69669596  0.75747352    -0.82000
O49         O  0.41770708  0.64844439  0.74487467    -0.84700
C50         C  0.40772769  0.62827775  0.73133200     1.03000
O51         O  0.42082994  0.61883598  0.71049961    -0.77500
O52         O  0.41407098  0.66285265  0.67390781    -0.77600
C53         C  0.41695466  0.68667102  0.66286321     1.03000
O54         O  0.49786495  0.68406091  0.67287506    -0.85000
O55         O  0.49674917  0.70707812  0.72605427    -0.82000
C56         C  0.50797713  0.69113401  0.74398033     0.98500
O57         O  0.49783614  0.66733168  0.74902528    -0.82100
O58         O  0.47105621  0.61797966  0.73935833    -0.84700
C59         C  0.48359217  0.60744412  0.71847232     1.03000
O60         O  0.47863638  0.61629373  0.69423639    -0.77500
O61         O  0.46952155  0.65432972  0.65257334    -0.77600
C62         C  0.49173052  0.66879437  0.65237283     1.02900
Cr63       Cr  0.46765891  0.69958851  0.69637819     1.93700
Cr64       Cr  0.45796388  0.65811236  0.74482794     1.93200
Cr65       Cr  0.44660321  0.64004054  0.68468841     1.39100
O66         O  0.45766194  0.66597794  0.70877872    -1.22700
O67         O  0.83063787  0.54335881  0.21801861    -0.85000
O68         O  0.77548510  0.55293257  0.23055561    -0.82000
C69         C  0.74918093  0.55375013  0.22857684     0.98500
O70         O  0.73650900  0.53791676  0.21146572    -0.82000
O71         O  0.75115359  0.55617891  0.15969120    -0.84700
C72         C  0.76626492  0.56314947  0.13946716     1.03000
O73         O  0.78862776  0.54976988  0.13408221    -0.77500
O74         O  0.82505925  0.56226475  0.17691233    -0.77600
C75         C  0.83484960  0.56336331  0.20124106     1.03000
O76         O  0.81817051  0.48457867  0.21419368    -0.85000
O77         O  0.76456042  0.49402466  0.23337716    -0.82000
C78         C  0.74908469  0.47794209  0.21918963     0.98500
O79         O  0.74733455  0.48114239  0.19324321    -0.82100
O80         O  0.75767181  0.49909646  0.13993105    -0.84700
C81         C  0.77889101  0.48554008  0.13143472     1.03000
O82         O  0.80293726  0.49098491  0.14086300    -0.77500
O83         O  0.84264537  0.50351340  0.18030602    -0.77600
C84         C  0.83948164  0.48463599  0.19880808     1.02900
Cr85       Cr  0.79655108  0.51883108  0.22125891     1.93700
Cr86       Cr  0.75096774  0.51876691  0.17664697     1.93200
Cr87       Cr  0.81286847  0.52629593  0.15999125     1.39100
O88         O  0.78675554  0.52123156  0.18582776    -1.22700
O89         O  0.71124035  0.66110570  0.43378351    -0.85000
O90         O  0.73070139  0.71459441  0.43431808    -0.82000
C91         C  0.73015181  0.74096173  0.43395741     0.98500
O92         O  0.71103710  0.75426324  0.44675984    -0.82000
O93         O  0.66186082  0.74576666  0.41840707    -0.84700
C94         C  0.64134734  0.73313172  0.40785194     1.03000
O95         O  0.63207479  0.71095796  0.41903257    -0.77500
O96         O  0.67432255  0.67276225  0.40898720    -0.77600
C97         C  0.69763030  0.66047975  0.41108275     1.03000
O98         O  0.69684297  0.66680237  0.49193812    -0.85000
O99         O  0.72164667  0.71996473  0.49310934    -0.82000
C100        C  0.70520575  0.73556073  0.50688054     0.98500
O101        O  0.68113430  0.74085150  0.49788282    -0.82100
O102        O  0.63191085  0.73621925  0.47061830    -0.84700
C103        C  0.62137728  0.71464804  0.48207588     1.03000
O104        O  0.62950689  0.69048527  0.47526098    -0.77500
O105        O  0.66616519  0.64854433  0.46321382    -0.77600
C106        C  0.68048679  0.64711420  0.48534368     1.02900
Cr107      Cr  0.71250788  0.69163879  0.46283743     1.93700
Cr108      Cr  0.67204452  0.74156360  0.45803989     1.93200
Cr109      Cr  0.65245372  0.68246150  0.44242531     1.39100
O110        O  0.67907187  0.70533280  0.45437749    -1.22700
O111        O  0.93876921  0.76957604  0.32297106    -0.85000
O112        O  0.93836062  0.75230586  0.26902502    -0.82000
C113        C  0.93813208  0.75359591  0.24286912     0.98500
O114        O  0.95090216  0.77326146  0.23033015    -0.82000
O115        O  0.92345488  0.82222023  0.24162778    -0.84700
C116        C  0.91329239  0.84254806  0.25472417     1.03000
O117        O  0.92493867  0.85121674  0.27679378    -0.77500
O118        O  0.91465294  0.80766379  0.31347280    -0.77600
C119        C  0.91640602  0.78385731  0.32483275     1.03000
O120        O  0.99755694  0.78297264  0.31705415    -0.85000
O121        O  0.99761672  0.76058630  0.26368525    -0.82000
C122        C  0.01108392  0.77681205  0.24765182     0.98500
O123        O  0.00284804  0.80149969  0.24370639    -0.82100
O124        O  0.97666536  0.85136386  0.25115424    -0.84700
C125        C  0.98863378  0.86114204  0.27273229     1.03000
O126        O  0.98217093  0.85205982  0.29650049    -0.77500
O127        O  0.96975689  0.81367756  0.33675079    -0.77600
C128        C  0.99163147  0.79869410  0.33726298     1.02900
Cr129      Cr  0.96765001  0.76903977  0.29229975     1.93700
Cr130      Cr  0.96310312  0.81154069  0.24443830     1.93200
Cr131      Cr  0.94865625  0.82925747  0.30400974     1.39100
O132        O  0.95983820  0.80322020  0.28015905    -1.22700
O133        O  0.55955561  0.20220024  0.81627520    -0.85000
O134        O  0.56365343  0.21269289  0.76084957    -0.82000
C135        C  0.56433968  0.20882615  0.73495973     0.98500
O136        O  0.55026995  0.18912330  0.72394270    -0.82000
O137        O  0.57653467  0.14145598  0.74104489    -0.84700
C138        C  0.58596674  0.12254139  0.75658765     1.03000
O139        O  0.57364278  0.11644620  0.77917073    -0.77500
O140        O  0.58345003  0.16336493  0.81103917    -0.77600
C141        C  0.58208089  0.18839117  0.81931966     1.03000
O142        O  0.50065266  0.18903885  0.80747810    -0.85000
O143        O  0.50463342  0.20613465  0.75283049    -0.82000
C144        C  0.49010418  0.18843418  0.73945619     0.98500
O145        O  0.49726055  0.16312562  0.73885817    -0.82100
O146        O  0.52320267  0.11380697  0.75180536    -0.84700
C147        C  0.51056352  0.10638670  0.77387265     1.03000
O148        O  0.51578308  0.11832814  0.79667444    -0.77500
O149        O  0.52664417  0.16107932  0.83292547    -0.77600
C150        C  0.50433581  0.17517152  0.82943300     1.02900
Cr151      Cr  0.53248002  0.19999278  0.78393542     1.93700
Cr152      Cr  0.53703276  0.15265832  0.74142854     1.93200
Cr153      Cr  0.54928404  0.14141923  0.80307834     1.39100
O154        O  0.53960497  0.16464187  0.77605000    -1.22700
O155        O  0.78784871  0.31830423  0.92597608    -0.85000
O156        O  0.77105357  0.26405995  0.91939457    -0.82000
C157        C  0.77293315  0.23782981  0.91676632     0.98500
O158        O  0.79179676  0.22412111  0.92965307    -0.82000
O159        O  0.84361176  0.23599650  0.90866272    -0.84700
C160        C  0.86371946  0.25050034  0.89993898     1.03000
O161        O  0.87018882  0.27310161  0.91211165    -0.77500
O162        O  0.82596064  0.30908082  0.90244975    -0.77600
C163        C  0.80211156  0.32027302  0.90389977     1.03000
O164        O  0.79762245  0.30752798  0.98414809    -0.85000
O165        O  0.77429667  0.25381567  0.97754533    -0.82000
C166        C  0.78862412  0.23600373  0.99086131     0.98500
O167        O  0.81409274  0.23256444  0.98516194    -0.82100
O168        O  0.86662356  0.24305254  0.96488949    -0.84700
C169        C  0.87693291  0.26485539  0.97627135     1.03000
O170        O  0.86843228  0.28897282  0.96966912    -0.77500
O171        O  0.82955839  0.32936497  0.95943289    -0.77600
C172        C  0.81384721  0.32817916  0.98070736     1.02900
Cr173      Cr  0.78558078  0.28499916  0.95151554     1.93700
Cr174      Cr  0.82852445  0.23688561  0.94690974     1.93200
Cr175      Cr  0.84643775  0.29815298  0.93649412     1.39100
O176        O  0.82029067  0.27312921  0.94519297    -1.22700
O177        O  0.66638920  0.41666476  0.70082801    -0.85000
O178        O  0.72084794  0.41528121  0.71742637    -0.82000
C179        C  0.74717122  0.41559500  0.71592226     0.98500
O180        O  0.75949524  0.42975889  0.69728078    -0.82000
O181        O  0.74833759  0.40552680  0.64690489    -0.84700
C182        C  0.73457106  0.39613242  0.62666858     1.03000
O183        O  0.71216415  0.40811885  0.61909072    -0.77500
O184        O  0.67610268  0.39518279  0.66163188    -0.77600
C185        C  0.66531804  0.39504818  0.68555226     1.03000
O186        O  0.67143106  0.47622210  0.69172290    -0.85000
O187        O  0.72577979  0.47477961  0.71365534    -0.82000
C188        C  0.74237158  0.48932173  0.69901198     0.98500
O189        O  0.74607138  0.48348935  0.67374479    -0.82100
O190        O  0.73815906  0.46037271  0.62224294    -0.84700
C191        C  0.71633240  0.47254802  0.61320435     1.03000
O192        O  0.69240805  0.46536491  0.62167463    -0.77500
O193        O  0.65205507  0.45049566  0.65914299    -0.77600
C194        C  0.65111062  0.47112153  0.67569568     1.02900
Cr195      Cr  0.69700306  0.44556918  0.70314743     1.93700
Cr196      Cr  0.74514936  0.44440152  0.66054473     1.93200
Cr197      Cr  0.68505255  0.43053931  0.64232817     1.39100
O198        O  0.70916108  0.44032466  0.66869156    -1.22700
O199        O  0.28207680  0.14991673  0.05598810    -0.85000
O200        O  0.27494263  0.20474589  0.06774873    -0.82000
C201        C  0.27927830  0.23053589  0.07070595     0.98500
O202        O  0.29878611  0.24250623  0.05731968    -0.82000
O203        O  0.34880671  0.21793068  0.07451100    -0.84700
C204        C  0.36783795  0.19986675  0.07765286     1.03000
O205        O  0.37110560  0.18084803  0.05965853    -0.77500
O206        O  0.32473380  0.15002662  0.07297133    -0.77600
C207        C  0.29930086  0.14337070  0.07502855     1.03000
O208        O  0.28620348  0.16470981  0.99737082    -0.85000
O209        O  0.27421235  0.21967555  0.00981357    -0.82000
C210        C  0.29028362  0.23576760  0.99620395     0.98500
O211        O  0.31629778  0.23600678  0.00083373    -0.82100
O212        O  0.36785281  0.21546223  0.01665777    -0.84700
C213        C  0.37245168  0.19523060  0.99999811     1.03000
O214        O  0.35879265  0.17265196  0.00200036    -0.77500
O215        O  0.31628416  0.13535103  0.01545233    -0.77600
C216        C  0.29765956  0.14100510  0.99748607     1.02900
Cr217      Cr  0.28204000  0.18519855  0.03275212     1.93700
Cr218      Cr  0.33210905  0.22540159  0.03733688     1.93200
Cr219      Cr  0.34108653  0.16179689  0.03726629     1.39100
O220        O  0.31835358  0.19097698  0.03547612    -1.22700
O221        O  0.07445943  0.25072852  0.18418070    -0.85000
O222        O  0.04933075  0.24562539  0.23498954    -0.82000
C223        C  0.06879078  0.25566352  0.24974397     0.98500
O224        O  0.07260221  0.28190735  0.25037142    -0.82000
O225        O  0.07274947  0.33745301  0.23174671    -0.84700
C226        C  0.09222034  0.33873200  0.21390849     1.03000
O227        O  0.08992591  0.32592157  0.19116145    -0.77500
O228        O  0.07495806  0.28555960  0.15421607    -0.77600
C229        C  0.08588433  0.26358135  0.16427697     1.03000
O230        O  0.02133420  0.26188752  0.15894568    -0.85000
O231        O  0.99725070  0.26266318  0.21175914    -0.82000
C232        C  0.99346276  0.26874200  0.23706062     0.98500
O233        O  0.01192002  0.28251695  0.25030029    -0.82100
O234        O  0.01262430  0.33505820  0.22606872    -0.84700
C235        C  0.01519858  0.35253523  0.20641214     1.03000
O236        O  0.03457171  0.35002466  0.18862879    -0.77500
O237        O  0.01836572  0.30735498  0.15350235    -0.77600
C238        C  0.01162149  0.28286700  0.14617738     1.02900
Cr239      Cr  0.03612009  0.25813197  0.19770131     1.93700
Cr240      Cr  0.04261775  0.30820301  0.23702771     1.93200
Cr241      Cr  0.05357862  0.31553226  0.17419215     1.39100
O242        O  0.04394673  0.29411129  0.20285841    -1.22700
O243        O  0.18867399  0.05752323  0.27761995    -0.85000
O244        O  0.23901731  0.03629172  0.26143945    -0.82000
C245        C  0.25682223  0.05440977  0.26918310     0.98500
O246        O  0.26291688  0.05705704  0.29469052    -0.82000
O247        O  0.25770385  0.05165061  0.35253075    -0.84700
C248        C  0.24217061  0.07221130  0.35803262     1.03000
O249        O  0.21684476  0.07182467  0.35081033    -0.77500
O250        O  0.17073085  0.06039570  0.31976291    -0.77600
C251        C  0.17314709  0.06955503  0.29515063     1.03000
O252        O  0.16953945  0.00283655  0.29257312    -0.85000
O253        O  0.22252330  0.98131276  0.28038047    -0.82000
C254        C  0.24885723  0.97884554  0.27969223     0.98500
O255        O  0.26401649  0.99769415  0.29028270    -0.82100
O256        O  0.25031222  0.99291459  0.34578244    -0.84700
C257        C  0.23449848  0.99345841  0.36683327     1.03000
O258        O  0.21765910  0.01369198  0.37084454    -0.77500
O259        O  0.17242258  0.00243273  0.33808186    -0.77600
C260        C  0.16085563  0.99435334  0.31590409     1.02900
Cr261      Cr  0.20589636  0.01994895  0.28087864     1.93700
Cr262      Cr  0.25572432  0.02510674  0.32049843     1.93200
Cr263      Cr  0.19629079  0.03634832  0.34262240     1.39100
O264        O  0.21899063  0.02719501  0.31470600    -1.22700
O265        O  0.00974048  0.12691911  0.68189958    -0.85000
O266        O  0.02139565  0.16466834  0.64013106    -0.82000
C267        C  0.00262914  0.18306263  0.64398963     0.98500
O268        O  0.00312753  0.19793633  0.66561159    -0.82000
O269        O  0.01698102  0.21715130  0.71824347    -0.84700
C270        C  0.00375020  0.20295211  0.73627344     1.03000
O271        O  0.00897130  0.17722396  0.73952585    -0.77500
O272        O  0.02490330  0.12361639  0.72510820    -0.77600
C273        C  0.00788149  0.11652525  0.70597987     1.03000
O274        O  0.06826026  0.11649146  0.69008660    -0.85000
O275        O  0.08011519  0.15952179  0.65397478    -0.82000
C276        C  0.08139058  0.18422926  0.64472867     0.98500
O277        O  0.06147605  0.20124540  0.64910013    -0.82100
O278        O  0.07505666  0.21520324  0.70176895    -0.84700
C279        C  0.07975389  0.21304303  0.72735451     1.03000
O280        O  0.06631958  0.19559502  0.74218274    -0.77500
O281        O  0.08298069  0.14271512  0.72437643    -0.77600
C282        C  0.08609269  0.12163513  0.70885027     1.02900
Cr283      Cr  0.04470258  0.14380676  0.66840141     1.93700
Cr284      Cr  0.03924216  0.20525437  0.68449328     1.93200
Cr285      Cr  0.04567264  0.16039341  0.73010755     1.39100
O286        O  0.04295869  0.16986036  0.69452727    -1.22700
O287        O  0.20373943  0.47097727  0.85906491    -0.85000
O288        O  0.16121946  0.45012736  0.82710165    -0.82000
C289        C  0.15873641  0.46829978  0.80805702     0.98500
O290        O  0.17748945  0.47097860  0.78980294    -0.82000
O291        O  0.23044979  0.46943633  0.76578187    -0.84700
C292        C  0.24608294  0.48697537  0.77824533     1.03000
O293        O  0.25180221  0.48371218  0.80362309    -0.77500
O294        O  0.24928170  0.46545030  0.85750091    -0.77600
C295        C  0.22796875  0.47868467  0.86606013     1.03000
O296        O  0.22557213  0.41505234  0.86777163    -0.85000
O297        O  0.18669223  0.39568828  0.83070114    -0.82000
C298        C  0.17450732  0.39144050  0.80787556     0.98500
O299        O  0.17457142  0.41010767  0.78894960    -0.82100
O300        O  0.22817338  0.40911800  0.76957468    -0.84700
C301        C  0.25441513  0.41134502  0.76893527     1.03000
O302        O  0.26685844  0.42875015  0.78449442    -0.77500
O303        O  0.25936830  0.40899816  0.83761331    -0.77600
C304        C  0.24730063  0.40207319  0.85982170     1.02900
Cr305      Cr  0.19596178  0.43348830  0.84404643     1.93700
Cr306      Cr  0.20367470  0.44004957  0.78109397     1.93200
Cr307      Cr  0.25406581  0.44618601  0.82047524     1.39100
O308        O  0.21789520  0.43995002  0.81511484    -1.22700
O309        O  0.36870521  0.29530034  0.51357292    -0.85000
O310        O  0.32836387  0.33237241  0.52938964    -0.82000
C311        C  0.31356278  0.33335236  0.50759240     0.98500
O312        O  0.29835495  0.31282142  0.50087274    -0.82000
O313        O  0.27759239  0.25835208  0.49884519    -0.84700
C314        C  0.29294047  0.24312931  0.48366763     1.03000
O315        O  0.31827971  0.23919361  0.48986817    -0.77500
O316        O  0.36980141  0.24903411  0.51366903    -0.77600
C317        C  0.37915774  0.27261217  0.50521985     1.03000
O318        O  0.37052206  0.27169351  0.56769736    -0.85000
O319        O  0.32533603  0.30392287  0.58217985    -0.82000
C320        C  0.30110965  0.31433172  0.58209215     0.98500
O321        O  0.28670832  0.31456528  0.55995086    -0.82100
O322        O  0.27231038  0.25959000  0.55771067    -0.84700
C323        C  0.27480915  0.23334327  0.55640371     1.03000
O324        O  0.29452967  0.22224940  0.54246926    -0.77500
O325        O  0.34474945  0.23393759  0.56771707    -0.77600
C326        C  0.36370739  0.24860242  0.57853614     1.02900
Cr327      Cr  0.34625979  0.29888184  0.54729706     1.93700
Cr328      Cr  0.28650501  0.28553578  0.52952473     1.93200
Cr329      Cr  0.33127705  0.23886580  0.52895839     1.39100
O330        O  0.32140053  0.27424356  0.53495509    -1.22700
O331        O  0.69874992  0.99762785  0.12166002    -0.85000
O332        O  0.65768953  0.01101100  0.15952678    -0.82000
C333        C  0.65956742  0.99006435  0.17575828     0.98500
O334        O  0.68054458  0.98727821  0.19128958    -0.82000
O335        O  0.73329120  0.99235468  0.21328896    -0.84700
C336        C  0.74943382  0.97736966  0.19869714     1.03000
O337        O  0.75320764  0.98294772  0.17335101    -0.77500
O338        O  0.74414215  0.00529553  0.12125105    -0.77600
C339        C  0.72281310  0.99209852  0.11237875     1.03000
O340        O  0.71589780  0.05585883  0.11756020    -0.85000
O341        O  0.67900520  0.06806676  0.15996107    -0.82000
C342        C  0.66844497  0.06816036  0.18398166     0.98500
O343        O  0.67088693  0.04687208  0.19963417    -0.82100
O344        O  0.72555723  0.05151505  0.21584432    -0.84700
C345        C  0.75193014  0.05109883  0.21518754     1.03000
O346        O  0.76470980  0.03754052  0.19632424    -0.77500
O347        O  0.75197306  0.06058424  0.14538319    -0.77600
C348        C  0.73804242  0.06873510  0.12470194     1.02900
Cr349      Cr  0.68971707  0.03258953  0.14156578     1.93700
Cr350      Cr  0.70326355  0.01980010  0.20234991     1.93200
Cr351      Cr  0.75073353  0.02190702  0.15955183     1.39100
O352        O  0.71471991  0.02482758  0.16782068    -1.22700
O353        O  0.86945387  0.19389085  0.45838249    -0.85000
O354        O  0.83671401  0.14910692  0.47154024    -0.82000
C355        C  0.81460520  0.13877216  0.48150768     0.98500
O356        O  0.79085993  0.14735200  0.47370345    -0.82000
O357        O  0.77918543  0.20140593  0.49181455    -0.84700
C358        C  0.77988407  0.22782643  0.49327375     1.03000
O359        O  0.78894184  0.24177112  0.47290761    -0.77500
O360        O  0.84480151  0.22756645  0.47823478    -0.77600
C361        C  0.86592286  0.21149659  0.47794301     1.03000
O362        O  0.84897031  0.19101754  0.40098226    -0.85000
O363        O  0.81718684  0.14553360  0.41445901    -0.82000
C364        C  0.79202949  0.14742847  0.40632500     0.98500
O365        O  0.77466286  0.16306924  0.41853116    -0.82100
O366        O  0.75947373  0.21477749  0.43651101    -0.84700
C367        C  0.76748068  0.22932564  0.41592497     1.03000
O368        O  0.79290421  0.23673710  0.41385246    -0.77500
O369        O  0.85120652  0.23235320  0.41989671    -0.77600
C370        C  0.85717681  0.21606783  0.40025665     1.02900
Cr371      Cr  0.84074781  0.17176188  0.43704835     1.93700
Cr372      Cr  0.77890469  0.18254726  0.45456873     1.93200
Cr373      Cr  0.81899175  0.23170598  0.44608491     1.39100
O374        O  0.81293792  0.19494790  0.44591648    -1.22700
O375        O  0.50743233  0.34087932  0.29421145    -0.85000
O376        O  0.52289160  0.30005454  0.33196688    -0.82000
C377        C  0.50435619  0.28114686  0.32935900     0.98500
O378        O  0.50269298  0.26711894  0.30732156    -0.82000
O379        O  0.50595253  0.25337898  0.25202382    -0.84700
C380        C  0.48965235  0.27033053  0.23946154     1.03000
O381        O  0.49546588  0.29598288  0.23800232    -0.77500
O382        O  0.51782851  0.34733653  0.25030669    -0.77600
C383        C  0.50339957  0.35357442  0.27159046     1.03000
O384        O  0.56601425  0.34891632  0.27816369    -0.85000
O385        O  0.57929214  0.30520578  0.31140890    -0.82000
C386        C  0.58256177  0.28001571  0.31817028     0.98500
O387        O  0.56348429  0.26197007  0.31352733    -0.82100
O388        O  0.56658373  0.25262904  0.25834473    -0.84700
C389        C  0.56541611  0.25545881  0.23242769     1.03000
O390        O  0.54950033  0.27399781  0.22195788    -0.77500
O391        O  0.57270418  0.32336598  0.24076907    -0.77600
C392        C  0.58035342  0.34280764  0.25670587     1.02900
Cr393      Cr  0.54327870  0.32203272  0.30198308     1.93700
Cr394      Cr  0.53475762  0.26140898  0.28235146     1.93200
Cr395      Cr  0.53416973  0.30938017  0.24026884     1.39100
O396        O  0.53736141  0.29752690  0.27495989    -1.22700
O397        O  0.13272421  0.68119062  0.00749690    -0.85000
O398        O  0.17024038  0.64064027  0.02268339    -0.82000
C399        C  0.18723423  0.64226160  0.00260862     0.98500
O400        O  0.20316163  0.66317146  0.00023687    -0.82000
O401        O  0.22380940  0.71699566  0.00668328    -0.84700
C402        C  0.20948217  0.73414371  0.99245856     1.03000
O403        O  0.18396358  0.73813147  0.99783998    -0.77500
O404        O  0.13099667  0.72643530  0.01630013    -0.77600
C405        C  0.12320411  0.70527045  0.00211605     1.03000
O406        O  0.12484487  0.69689752  0.06408821    -0.85000
O407        O  0.16808366  0.66109623  0.07896234    -0.82000
C408        C  0.19239518  0.65072966  0.07984944     0.98500
O409        O  0.20899744  0.65361819  0.05946252    -0.82100
O410        O  0.22474337  0.70801160  0.06541311    -0.84700
C411        C  0.22303704  0.73430837  0.06661257     1.03000
O412        O  0.20411236  0.74730351  0.05329650    -0.77500
O413        O  0.15225083  0.73221989  0.07362903    -0.77600
C414        C  0.13094665  0.71770770  0.07906889     1.02900
Cr415      Cr  0.15097339  0.67186947  0.04295586     1.93700
Cr416      Cr  0.21246243  0.68623729  0.03308356     1.93200
Cr417      Cr  0.16833714  0.73326887  0.03554573     1.39100
O418        O  0.17734594  0.69729084  0.03698694    -1.22700
O419        O  0.48267028  0.84941084  0.18651377    -0.85000
O420        O  0.47307725  0.80828747  0.14807532    -0.82000
C421        C  0.49456112  0.79311667  0.15212397     0.98500
O422        O  0.49676899  0.77885723  0.17400728    -0.82000
O423        O  0.48897311  0.75958611  0.22731461    -0.84700
C424        C  0.50285839  0.77574566  0.24296887     1.03000
O425        O  0.49613040  0.80117956  0.24518243    -0.77500
O426        O  0.47355566  0.85244097  0.23127632    -0.77600
C427        C  0.48704101  0.86053172  0.20987521     1.03000
O428        O  0.42394031  0.85259043  0.20019244    -0.85000
O429        O  0.41520288  0.80710758  0.16661829    -0.82000
C430        C  0.41638522  0.78241538  0.15751313     0.98500
O431        O  0.43822465  0.76779341  0.16131302    -0.82100
O432        O  0.43047052  0.75508843  0.21578400    -0.84700
C433        C  0.42823671  0.75774104  0.24172360     1.03000
O434        O  0.44108233  0.77730873  0.25441342    -0.77500
O435        O  0.41798333  0.82729295  0.23772753    -0.77600
C436        C  0.40978857  0.84641788  0.22165993     1.02900
Cr437      Cr  0.44923511  0.82759377  0.17733503     1.93700
Cr438      Cr  0.46325851  0.76799876  0.19518953     1.93200
Cr439      Cr  0.45709008  0.81389813  0.23947518     1.39100
O440        O  0.45657792  0.80322513  0.20418622    -1.22700
O441        O  0.30318250  0.50153207  0.35707505    -0.85000
O442        O  0.33938647  0.51000604  0.31323734    -0.82000
C443        C  0.33332523  0.48840103  0.29917976     0.98500
O444        O  0.30980316  0.48657465  0.28758883    -0.82000
O445        O  0.25427527  0.49536350  0.27400698    -0.84700
C446        C  0.23954896  0.48384532  0.29279978     1.03000
O447        O  0.23951236  0.49337656  0.31716138    -0.77500
O448        O  0.25998102  0.51580503  0.36466415    -0.77600
C449        C  0.28046651  0.49973248  0.37033898     1.03000
O450        O  0.29359065  0.56025090  0.36213725    -0.85000
O451        O  0.32325810  0.56801631  0.31361601    -0.82000
C452        C  0.32950399  0.56665658  0.28818022     0.98500
O453        O  0.32293166  0.54516971  0.27388612    -0.82100
O454        O  0.26767798  0.55355388  0.26517666    -0.84700
C455        C  0.24228084  0.55791234  0.27044052     1.03000
O456        O  0.23119231  0.54801592  0.29234125    -0.77500
O457        O  0.25559501  0.57149118  0.33936073    -0.77600
C458        C  0.27303706  0.57653300  0.35839403     1.02900
Cr459      Cr  0.31271626  0.53459965  0.33489157     1.93700
Cr460      Cr  0.28837514  0.52064332  0.27784244     1.93200
Cr461      Cr  0.24911754  0.53217341  0.32729045     1.39100
O462        O  0.28319231  0.52917760  0.31322933    -1.22700
O463        O  0.64355321  0.78182980  0.98267365    -0.85000
O464        O  0.68491288  0.81862946  0.96624237    -0.82000
C465        C  0.70181578  0.81468809  0.98621426     0.98500
O466        O  0.71519889  0.79202358  0.98788294    -0.82000
O467        O  0.73081584  0.73689615  0.98014989    -0.84700
C468        C  0.71576708  0.72113944  0.99512784     1.03000
O469        O  0.68971722  0.71941565  0.99090018    -0.77500
O470        O  0.63698851  0.73691715  0.97396350    -0.77600
C471        C  0.63101034  0.75905198  0.98755436     1.03000
O472        O  0.63210009  0.76700625  0.92649169    -0.85000
O473        O  0.67816925  0.79782219  0.90991930    -0.82000
C474        C  0.70345166  0.80516247  0.90783233     0.98500
O475        O  0.72008125  0.80164868  0.92813222    -0.82100
O476        O  0.72987619  0.74606584  0.92151555    -0.84700
C477        C  0.72533558  0.72010918  0.91990617     1.03000
O478        O  0.70628422  0.70874400  0.93444443    -0.77500
O479        O  0.65521325  0.72886400  0.91629888    -0.77600
C480        C  0.63526336  0.74546792  0.91157866     1.02900
Cr481      Cr  0.66151529  0.78927145  0.94666639     1.93700
Cr482      Cr  0.72128991  0.76869465  0.95441129     1.93200
Cr483      Cr  0.67283129  0.72618314  0.95371947     1.39100
O484        O  0.68523439  0.76114993  0.95183533    -1.22700
O485        O  0.80477678  0.97279491  0.63798111    -0.85000
O486        O  0.84313519  0.96115034  0.67925599    -0.82000
C487        C  0.83708746  0.98043734  0.69629248     0.98500
O488        O  0.81456295  0.97939292  0.70979493    -0.82000
O489        O  0.76099785  0.96510859  0.72499019    -0.84700
C490        C  0.74438636  0.97871118  0.70961009     1.03000
O491        O  0.74283904  0.97369027  0.68388656    -0.77500
O492        O  0.76138808  0.95840794  0.63186671    -0.77600
C493        C  0.78134430  0.97509792  0.62600140     1.03000
O494        O  0.79734962  0.91428427  0.62758875    -0.85000
O495        O  0.82995933  0.90255743  0.67330968    -0.82000
C496        C  0.83763384  0.90150679  0.69839624     0.98500
O497        O  0.83136952  0.92110806  0.71501837    -0.82100
O498        O  0.77677878  0.90744770  0.72501951    -0.84700
C499        C  0.75115459  0.90309156  0.72041249     1.03000
O500        O  0.73851746  0.91609609  0.70106410    -0.77500
O501        O  0.76047458  0.89983453  0.65032811    -0.77600
C502        C  0.77806158  0.89652474  0.63106235     1.02900
Cr503      Cr  0.81670383  0.93781617  0.65633589     1.93700
Cr504      Cr  0.79544747  0.94310046  0.71593166     1.93200
Cr505      Cr  0.75346805  0.93708596  0.66759502     1.39100
O506        O  0.78832151  0.93944404  0.67999068    -1.22700
O507        O  0.98344774  0.61194500  0.78988125    -0.85000
O508        O  0.96785209  0.64747596  0.83166770    -0.82000
C509        C  0.98805638  0.66465836  0.83330770     0.98500
O510        O  0.99253337  0.68190797  0.81390145    -0.82000
O511        O  0.99069560  0.70622926  0.76108587    -0.84700
C512        C  0.00605495  0.69232060  0.74463322     1.03000
O513        O  0.00082285  0.66692026  0.73986930    -0.77500
O514        O  0.97855319  0.61432742  0.74450358    -0.77600
C515        C  0.99069610  0.60435421  0.76583121     1.03000
O516        O  0.92639128  0.60910035  0.76970842    -0.85000
O517        O  0.91231192  0.64961816  0.80773035    -0.82000
C518        C  0.91158356  0.67315922  0.81957432     0.98500
O519        O  0.93279928  0.68912076  0.81921541    -0.82100
O520        O  0.93103961  0.70804276  0.76578623    -0.84700
C521        C  0.93211261  0.70826042  0.73962081     1.03000
O522        O  0.94700564  0.69055395  0.72667848    -0.77500
O523        O  0.92352599  0.63887595  0.73515072    -0.77600
C524        C  0.91438471  0.61770202  0.74777654     1.02900
Cr525      Cr  0.94819805  0.63156569  0.79801678     1.93700
Cr526      Cr  0.96163463  0.69364102  0.78899926     1.93200
Cr527      Cr  0.96204516  0.65302582  0.73935701     1.39100
O528        O  0.95741692  0.65941458  0.77538662    -1.22700
C529        C  0.89113332  0.77653704  0.72549624     0.19100
C530        C  0.87914096  0.79621004  0.74364049    -0.19000
C531        C  0.86849524  0.82149546  0.73364947    -0.11300
C532        C  0.86972660  0.82785599  0.70510642     0.21300
C533        C  0.88122128  0.80803427  0.68680310    -0.20600
C534        C  0.89195808  0.78263891  0.69683115    -0.11500
C535        C  0.85756546  0.85406855  0.69363788    -0.15600
C536        C  0.85355624  0.87732297  0.70896851    -0.29500
C537        C  0.90303796  0.75062904  0.73796680    -0.03800
C538        C  0.91736699  0.73063783  0.72417324    -0.40300
H539        H  0.87799024  0.79203141  0.76577949     0.12500
H540        H  0.85878481  0.83560002  0.74836933     0.12100
H541        H  0.88197669  0.81226292  0.66466316     0.11500
H542        H  0.90076236  0.76811191  0.68200413     0.11800
H543        H  0.85114343  0.85396813  0.67193043     0.14500
H544        H  0.86074225  0.87830051  0.73036773     0.13300
H545        H  0.90104974  0.74868788  0.76041479     0.11000
H546        H  0.92005282  0.73147983  0.70182551     0.13000
C547        C  0.73367626  0.85551712  0.78327470     0.19100
C548        C  0.74993863  0.83838794  0.80073173    -0.19000
C549        C  0.73858467  0.82667171  0.82485338    -0.11300
C550        C  0.71062298  0.83201732  0.83230077     0.21300
C551        C  0.69384754  0.84792939  0.81418325    -0.20600
C552        C  0.70526718  0.85980700  0.78999456    -0.11500
C553        C  0.69864000  0.82112329  0.85876392    -0.15600
C554        C  0.71429501  0.81774445  0.88189066    -0.29500
C555        C  0.74812291  0.87058005  0.76022527    -0.03800
C556        C  0.73527388  0.88419081  0.73915762    -0.40300
H557        H  0.77179094  0.83453907  0.79601572     0.12500
H558        H  0.75183925  0.81355994  0.83771285     0.12100
H559        H  0.67213261  0.85203893  0.81929286     0.11500
H560        H  0.69205640  0.87314080  0.77737508     0.11800
H561        H  0.67636260  0.81646358  0.85940869     0.14500
H562        H  0.73623439  0.82374099  0.88173448     0.13300
H563        H  0.77084525  0.87147559  0.76146196     0.11000
H564        H  0.71275141  0.88294577  0.73652701     0.13000
C565        C  0.83620131  0.67910352  0.84736748     0.19100
C566        C  0.81685645  0.66134702  0.86060009    -0.19000
C567        C  0.79258228  0.67238828  0.87291822    -0.11300
C568        C  0.78715510  0.70141556  0.87170652     0.21300
C569        C  0.80596899  0.71876609  0.85733059    -0.20600
C570        C  0.83008510  0.70782546  0.84526905    -0.11500
C571        C  0.76353903  0.71539910  0.88627830    -0.15600
C572        C  0.74394072  0.70284391  0.90218524    -0.29500
C573        C  0.86237883  0.66750469  0.83531028    -0.03800
C574        C  0.88609847  0.68275563  0.83394710    -0.40300
H575        H  0.82090912  0.63903105  0.86203045     0.12500
H576        H  0.77861776  0.65822382  0.88366250     0.12100
H577        H  0.80226294  0.74113504  0.85576874     0.11500
H578        H  0.84384292  0.72198241  0.83418772     0.11800
H579        H  0.76334185  0.73817328  0.88502623     0.14500
H580        H  0.74265948  0.68020435  0.90380918     0.13300
H581        H  0.86216446  0.64608692  0.82759237     0.11000
H582        H  0.88681456  0.70353564  0.84314181     0.13000
C583        C  0.58057566  0.78256489  0.04572717     0.19100
C584        C  0.58481630  0.79758049  0.07046045    -0.19000
C585        C  0.56299284  0.80118278  0.08945243    -0.11300
C586        C  0.53623229  0.79029801  0.08381536     0.21300
C587        C  0.53169610  0.77593173  0.05871875    -0.20600
C588        C  0.55376574  0.77178607  0.03992310    -0.11500
C589        C  0.51293849  0.79391336  0.10392416    -0.15600
C590        C  0.51721801  0.79130279  0.13143790    -0.29500
C591        C  0.60401519  0.78056233  0.02560083    -0.03800
C592        C  0.60808464  0.75872195  0.00828541    -0.40300
H593        H  0.60514991  0.80651771  0.07512849     0.12500
H594        H  0.56693392  0.81291503  0.10834189     0.12100
H595        H  0.51114737  0.76762481  0.05383932     0.11500
H596        H  0.54967374  0.76082963  0.02062261     0.11800
H597        H  0.49179409  0.79677191  0.09601322     0.14500
H598        H  0.53788006  0.78556131  0.13905471     0.13300
H599        H  0.61904047  0.79769975  0.02560264     0.11000
H600        H  0.59439929  0.74055320  0.00920200     0.13000
C601        C  0.36339246  0.63946136  0.27733742     0.19100
C602        C  0.37513505  0.65948152  0.29536096    -0.19000
C603        C  0.38661913  0.68439827  0.28499865    -0.11300
C604        C  0.38633234  0.68991057  0.25624399     0.21300
C605        C  0.37420571  0.67003053  0.23831448    -0.20600
C606        C  0.36282257  0.64515023  0.24865200    -0.11500
C607        C  0.39948076  0.71509768  0.24348747    -0.15600
C608        C  0.41198365  0.73641381  0.25726952    -0.29500
C609        C  0.35062917  0.61379480  0.28948200    -0.03800
C610        C  0.34452653  0.59029972  0.27502180    -0.40300
H611        H  0.37557432  0.65574908  0.31760057     0.12500
H612        H  0.39582722  0.69892686  0.29960744     0.12100
H613        H  0.37359207  0.67370482  0.21606323     0.11500
H614        H  0.35322450  0.63080528  0.23408443     0.11800
H615        H  0.39986996  0.71538640  0.22087033     0.14500
H616        H  0.41187080  0.73749002  0.27978042     0.13300
H617        H  0.34587273  0.61444460  0.31159178     0.11000
H618        H  0.34983854  0.58847577  0.25316658     0.13000
C619        C  0.07473071  0.68718137  0.93968131     0.19100
C620        C  0.06381318  0.66169338  0.92982723    -0.19000
C621        C  0.04730257  0.66073102  0.90582016    -0.11300
C622        C  0.04111544  0.68538850  0.89094520     0.21300
C623        C  0.05214499  0.71092771  0.90064216    -0.20600
C624        C  0.06869211  0.71190528  0.92479267    -0.11500
C625        C  0.02410986  0.68502126  0.86485106    -0.15600
C626        C  0.00551881  0.66461449  0.85877033    -0.29500
C627        C  0.09365849  0.68627002  0.96438605    -0.03800
C628        C  0.10270013  0.70866558  0.97908940    -0.40300
H629        H  0.06841191  0.64224237  0.94056881     0.12500
H630        H  0.04011997  0.64047169  0.89868414     0.12100
H631        H  0.04800329  0.73020627  0.88943379     0.11500
H632        H  0.07713954  0.73190954  0.93121430     0.11800
H633        H  0.02620244  0.70267817  0.85069327     0.14500
H634        H  0.00175883  0.64780357  0.87350193     0.13300
H635        H  0.10075797  0.66556811  0.97072779     0.11000
H636        H  0.09554270  0.72964498  0.97410379     0.13000
C637        C  0.34260871  0.77238291  0.12668714     0.19100
C638        C  0.32279976  0.78994674  0.11389160    -0.19000
C639        C  0.29788942  0.77892470  0.10306078    -0.11300
C640        C  0.29218690  0.75004354  0.10526387     0.21300
C641        C  0.31188153  0.73264955  0.11845374    -0.20600
C642        C  0.33672776  0.74362423  0.12914230    -0.11500
C643        C  0.26705931  0.73654216  0.09289690    -0.15600
C644        C  0.24469678  0.75004105  0.08212478    -0.29500
C645        C  0.36840633  0.78484192  0.13864486    -0.03800
C646        C  0.39225639  0.77027119  0.14265053    -0.40300
H647        H  0.32676911  0.81224601  0.11200188     0.12500
H648        H  0.28357617  0.79305398  0.09270220     0.12100
H649        H  0.30804544  0.71034215  0.12050988     0.11500
H650        H  0.35096025  0.72955661  0.13974551     0.11800
H651        H  0.26754605  0.71375787  0.09184982     0.14500
H652        H  0.24300268  0.77270264  0.08298193     0.13300
H653        H  0.36762003  0.80686138  0.14448684     0.11000
H654        H  0.39395663  0.74866799  0.13573379     0.13000
C655        C  0.19773853  0.61613637  0.15236359     0.19100
C656        C  0.18861802  0.62340309  0.17923866    -0.19000
C657        C  0.19984766  0.61003369  0.20278139    -0.11300
C658        C  0.22028356  0.58905214  0.19966014     0.21300
C659        C  0.22851235  0.58112975  0.17278135    -0.20600
C660        C  0.21721059  0.59422742  0.14942185    -0.11500
C661        C  0.23520053  0.57599374  0.22340144    -0.15600
C662        C  0.22537912  0.57339999  0.24960940    -0.29500
C663        C  0.18699876  0.63182367  0.12778332    -0.03800
C664        C  0.20196535  0.63446024  0.10415883    -0.40300
H665        H  0.17342258  0.64002783  0.18204460     0.12500
H666        H  0.19327068  0.61680575  0.22324727     0.12100
H667        H  0.24400488  0.56479036  0.16981035     0.11500
H668        H  0.22389486  0.58709115  0.12912186     0.11800
H669        H  0.25534027  0.56662489  0.21839055     0.14500
H670        H  0.20460768  0.58076704  0.25509544     0.13300
H671        H  0.16705660  0.64263411  0.12966284     0.11000
H672        H  0.22273485  0.62535640  0.10272120     0.13000
C673        C  0.40159963  0.44526546  0.29606685     0.19100
C674        C  0.42879267  0.45108987  0.28654244    -0.19000
C675        C  0.44843190  0.42947840  0.28334657    -0.11300
C676        C  0.44133923  0.40172291  0.29027714     0.21300
C677        C  0.41432557  0.39600831  0.30024477    -0.20600
C678        C  0.39454720  0.41746108  0.30286652    -0.11500
C679        C  0.46222375  0.37870690  0.28961686    -0.15600
C680        C  0.48259309  0.37654130  0.27035679    -0.29500
C681        C  0.38131214  0.46859055  0.29985157    -0.03800
C682        C  0.35363525  0.46533060  0.29565180    -0.40300
H683        H  0.43481644  0.47240689  0.28152697     0.12500
H684        H  0.46935643  0.43461478  0.27633302     0.12100
H685        H  0.40855582  0.37485165  0.30615821     0.11500
H686        H  0.37402911  0.41236780  0.31099387     0.11800
H687        H  0.46013225  0.36232975  0.30523691     0.14500
H688        H  0.48370429  0.39145046  0.25329614     0.13300
H689        H  0.38947941  0.48922830  0.30499133     0.11000
H690        H  0.34561856  0.44537303  0.28822057     0.13000
C691        C  0.79604312  0.03746715  0.57573168     0.19100
C692        C  0.81890603  0.05580012  0.57265966    -0.19000
C693        C  0.81867262  0.07707362  0.55257831    -0.11300
C694        C  0.79550360  0.08051139  0.53479338     0.21300
C695        C  0.77247001  0.06244100  0.53802819    -0.20600
C696        C  0.77271623  0.04107565  0.55810434    -0.11500
C697        C  0.79413596  0.10315223  0.51334961    -0.15600
C698        C  0.81681477  0.11619521  0.50264250    -0.29500
C699        C  0.79796672  0.01498065  0.59735942    -0.03800
C700        C  0.77728242  0.99694109  0.60432799    -0.40300
H701        H  0.83710595  0.05375215  0.58599311     0.12500
H702        H  0.83650899  0.09099916  0.55148615     0.12100
H703        H  0.75423812  0.06471452  0.52477153     0.11500
H704        H  0.75464695  0.02752267  0.55944120     0.11800
H705        H  0.77351651  0.10880246  0.50553755     0.14500
H706        H  0.83771026  0.11003370  0.50906890     0.13300
H707        H  0.81781699  0.01330076  0.60834098     0.11000
H708        H  0.75698730  0.99796435  0.59429259     0.13000
C709        C  0.69750454  0.22921688  0.37542873     0.19100
C710        C  0.69421927  0.25452592  0.36078356    -0.19000
C711        C  0.66917481  0.26014213  0.34658093    -0.11300
C712        C  0.64690363  0.24066342  0.34696564     0.21300
C713        C  0.65084209  0.21493426  0.36039770    -0.20600
C714        C  0.67573739  0.20936621  0.37460928    -0.11500
C715        C  0.61924737  0.24663962  0.33396946    -0.15600
C716        C  0.60913218  0.27279610  0.33201633    -0.29500
C717        C  0.72193018  0.22307964  0.39361911    -0.03800
C718        C  0.74623999  0.23757854  0.39494484    -0.40300
H719        H  0.71045343  0.27033658  0.36085673     0.12500
H720        H  0.66729645  0.27981400  0.33549778     0.12100
H721        H  0.63423421  0.19945595  0.36071042     0.11500
H722        H  0.67771864  0.18961676  0.38559851     0.11800
H723        H  0.60654504  0.22914952  0.32682936     0.14500
H724        H  0.62140925  0.29024741  0.33986966     0.13300
H725        H  0.71942037  0.20509569  0.40732298     0.11000
H726        H  0.75072379  0.25466262  0.38072843     0.13000
C727        C  0.58864473  0.95214836  0.18150714     0.19100
C728        C  0.56439192  0.95746087  0.19722628    -0.19000
C729        C  0.54435189  0.93630446  0.20143598    -0.11300
C730        C  0.54807499  0.90965910  0.18944988     0.21300
C731        C  0.57209643  0.90462477  0.17339871    -0.20600
C732        C  0.59222116  0.92549219  0.16959821    -0.11500
C733        C  0.52651648  0.88727046  0.19081704    -0.15600
C734        C  0.50787996  0.88355940  0.21162435    -0.29500
C735        C  0.61000267  0.97450740  0.17748760    -0.03800
C736        C  0.63752139  0.96850934  0.17721247    -0.40300
H737        H  0.56107497  0.97793236  0.20641199     0.12500
H738        H  0.52569550  0.94105676  0.21330968     0.12100
H739        H  0.57523528  0.88442553  0.16355623     0.11500
H740        H  0.61031166  0.92090447  0.15681791     0.11800
H741        H  0.52665286  0.87231442  0.17373148     0.14500
H742        H  0.50833801  0.89685735  0.22995225     0.13300
H743        H  0.60323445  0.99626324  0.17679899     0.11000
H744        H  0.64435345  0.94712607  0.18110699     0.13000
C745        C  0.70784070  0.92767679  0.06602684     0.19100
C746        C  0.69587102  0.90148719  0.07207835    -0.19000
C747        C  0.69476787  0.88041742  0.05189093    -0.11300
C748        C  0.70504064  0.88534261  0.02493935     0.21300
C749        C  0.71680173  0.91161038  0.01872526    -0.20600
C750        C  0.71856042  0.93251318  0.03919039    -0.11500
C751        C  0.70202043  0.86387554  0.00276002    -0.15600
C752        C  0.70610599  0.83640253  0.00769424    -0.29500
C753        C  0.70650815  0.95009149  0.08743510    -0.03800
C754        C  0.72591420  0.97038863  0.09055206    -0.40300
H755        H  0.68711441  0.89740196  0.09247482     0.12500
H756        H  0.68499614  0.86060237  0.05709282     0.12100
H757        H  0.72454320  0.91596379  0.99798306     0.11500
H758        H  0.72730057  0.95272013  0.03371132     0.11800
H759        H  0.69708150  0.87089000  0.98179201     0.14500
H760        H  0.71352198  0.82962527  0.02800087     0.13300
H761        H  0.68914486  0.94915638  0.10203799     0.11000
H762        H  0.74464659  0.97043154  0.07775399     0.13000
C763        C  0.78911066  0.10590024  0.33745451     0.19100
C764        C  0.80508894  0.10661748  0.31288711    -0.19000
C765        C  0.79464037  0.09502403  0.28810531    -0.11300
C766        C  0.76806157  0.08225967  0.28766025     0.21300
C767        C  0.75270631  0.08066314  0.31250745    -0.20600
C768        C  0.76310706  0.09212293  0.33710667    -0.11500
C769        C  0.75461873  0.07122455  0.26200064    -0.15600
C770        C  0.76776837  0.06474041  0.23800683    -0.29500
C771        C  0.79963885  0.11998853  0.36304057    -0.03800
C772        C  0.78219340  0.13124675  0.38204658    -0.40300
H773        H  0.82531828  0.11691463  0.31268166     0.12500
H774        H  0.80703151  0.09682743  0.26936045     0.12100
H775        H  0.73234484  0.07062079  0.31288781     0.11500
H776        H  0.75065354  0.09014949  0.35580560     0.11800
H777        H  0.73231159  0.06688267  0.26357447     0.14500
H778        H  0.79026994  0.06712239  0.23595435     0.13300
H779        H  0.82210526  0.12292276  0.36530903     0.11000
H780        H  0.75971337  0.13054352  0.37868929     0.13000
C781        C  0.63630769  0.14228972  0.19115420     0.19100
C782        C  0.62240108  0.16141096  0.17361844    -0.19000
C783        C  0.61001372  0.18579752  0.18450134    -0.11300
C784        C  0.61174722  0.19163626  0.21317439     0.21300
C785        C  0.62643242  0.17286775  0.23038788    -0.20600
C786        C  0.63856956  0.14861730  0.21960910    -0.11500
C787        C  0.59801929  0.21604625  0.22688331    -0.15600
C788        C  0.58133374  0.23546743  0.21474258    -0.29500
C789        C  0.64930206  0.11650533  0.17933366    -0.03800
C790        C  0.65315634  0.09294940  0.19444816    -0.40300
H791        H  0.62076591  0.15724743  0.15152277     0.12500
H792        H  0.59906493  0.19972117  0.17045575     0.12100
H793        H  0.62839595  0.17684459  0.25250081     0.11500
H794        H  0.65007006  0.13511374  0.23366241     0.11800
H795        H  0.60088340  0.21718112  0.24929697     0.14500
H796        H  0.57788452  0.23567034  0.19245556     0.13300
H797        H  0.65576036  0.11691884  0.15766114     0.11000
H798        H  0.64533463  0.09178833  0.21561303     0.13000
C799        C  0.29790100  0.43855717  0.41945266     0.19100
C800        C  0.32238187  0.42952160  0.43286964    -0.19000
C801        C  0.32223441  0.40540104  0.44930831    -0.11300
C802        C  0.29748631  0.38972032  0.45258759     0.21300
C803        C  0.27306174  0.39857294  0.43893042    -0.20600
C804        C  0.27316898  0.42284147  0.42259350    -0.11500
C805        C  0.29679063  0.36355823  0.46924890    -0.15600
C806        C  0.31408406  0.35916767  0.49086348    -0.29500
C807        C  0.29974167  0.46277730  0.40027606    -0.03800
C808        C  0.27767581  0.47849543  0.39245964    -0.40300
H809        H  0.34182301  0.44095690  0.43028297     0.12500
H810        H  0.34173306  0.39871114  0.45868649     0.12100
H811        H  0.25387297  0.38659857  0.44081842     0.11500
H812        H  0.25415286  0.42861984  0.41177041     0.11800
H813        H  0.28095651  0.34797998  0.46424543     0.14500
H814        H  0.32874484  0.37533664  0.49721960     0.13300
H815        H  0.32033474  0.46756848  0.39186758     0.11000
H816        H  0.25718138  0.47522293  0.40164705     0.13000
C817        C  0.46940694  0.27339159  0.40197282     0.19100
C818        C  0.47201417  0.28705049  0.42771907    -0.19000
C819        C  0.45416747  0.28046213  0.44987844    -0.11300
C820        C  0.43308667  0.26001646  0.44679914     0.21300
C821        C  0.43135660  0.24533408  0.42160644    -0.20600
C822        C  0.44922843  0.25188076  0.39942857    -0.11500
C823        C  0.41193813  0.25446211  0.46896231    -0.15600
C824        C  0.40305432  0.27500313  0.48589753    -0.29500
C825        C  0.48842430  0.28192114  0.37871325    -0.03800
C826        C  0.48465785  0.27412742  0.35204788    -0.40300
H827        H  0.48771139  0.30319650  0.43061925     0.12500
H828        H  0.45689170  0.29152007  0.46934973     0.12100
H829        H  0.41562152  0.22920715  0.41880928     0.11500
H830        H  0.44699042  0.23986410  0.38053480     0.11800
H831        H  0.40139570  0.23426794  0.46937232     0.14500
H832        H  0.41194021  0.29585553  0.48375073     0.13300
H833        H  0.50618778  0.29524616  0.38373803     0.11000
H834        H  0.46700487  0.26112918  0.34626839     0.13000
C835        C  0.20953203  0.59192684  0.94442478     0.19100
C836        C  0.23518218  0.57996462  0.93662239    -0.19000
C837        C  0.23587324  0.55660173  0.91900399    -0.11300
C838        C  0.21076778  0.54502834  0.90868106     0.21300
C839        C  0.18526452  0.55778598  0.91574394    -0.20600
C840        C  0.18460025  0.58094458  0.93337333    -0.11500
C841        C  0.20970159  0.52002325  0.89032819    -0.15600
C842        C  0.23149968  0.50308163  0.88457959    -0.29500
C843        C  0.20908026  0.61583717  0.96405609    -0.03800
C844        C  0.18824590  0.61905248  0.98255467    -0.40300
H845        H  0.25467465  0.58839295  0.94460117     0.12500
H846        H  0.25605393  0.54794243  0.91360567     0.12100
H847        H  0.16564583  0.54966136  0.90774766     0.11500
H848        H  0.16452945  0.59031976  0.93818073     0.11800
H849        H  0.18941359  0.51503824  0.88127727     0.14500
H850        H  0.25217489  0.50706952  0.89300257     0.13300
H851        H  0.22681267  0.63013285  0.96430617     0.11000
H852        H  0.17166791  0.60350327  0.98384078     0.13000
C853        C  0.05316364  0.55564657  0.78395451     0.19100
C854        C  0.06559516  0.54819723  0.80941751    -0.19000
C855        C  0.08918295  0.53091951  0.81028942    -0.11300
C856        C  0.10096988  0.52045413  0.78559488     0.21300
C857        C  0.08880806  0.52805623  0.76005236    -0.20600
C858        C  0.06506792  0.54535555  0.75915882    -0.11500
C859        C  0.12648569  0.50251717  0.78586048    -0.15600
C860        C  0.13330010  0.48590983  0.80751819    -0.29500
C861        C  0.02850355  0.57479639  0.78476831    -0.03800
C862        C  0.01365546  0.58372754  0.76254388    -0.40300
H863        H  0.05717671  0.55603034  0.82884992     0.12500
H864        H  0.09845350  0.52639380  0.83034441     0.12100
H865        H  0.09766687  0.52050113  0.74071213     0.11500
H866        H  0.05649072  0.55067063  0.73903195     0.11800
H867        H  0.13955902  0.50233102  0.76735817     0.14500
H868        H  0.11940561  0.48438503  0.82531586     0.13300
H869        H  0.02250139  0.58245136  0.80521843     0.11000
H870        H  0.01873880  0.57685320  0.74167591     0.13000
C871        C  0.27085438  0.36303609  0.70691111     0.19100
C872        C  0.25325682  0.34881163  0.68823327    -0.19000
C873        C  0.26389063  0.33733616  0.66375618    -0.11300
C874        C  0.29248781  0.33983873  0.65740380     0.21300
C875        C  0.31038114  0.35293249  0.67655849    -0.20600
C876        C  0.29972150  0.36457620  0.70105963    -0.11500
C877        C  0.30428526  0.32837559  0.63132018    -0.15600
C878        C  0.28937112  0.32659666  0.60762153    -0.29500
C879        C  0.25765794  0.37670613  0.73135238    -0.03800
C880        C  0.27056798  0.39489419  0.74853507    -0.40300
H881        H  0.23102444  0.34695450  0.69234648     0.12500
H882        H  0.24967949  0.32637797  0.64997351     0.12100
H883        H  0.33259893  0.35461871  0.67228936     0.11500
H884        H  0.31422333  0.37476430  0.71503369     0.11800
H885        H  0.32616536  0.32206386  0.63142209     0.14500
H886        H  0.26800744  0.33435750  0.60676634     0.13300
H887        H  0.23536172  0.37303624  0.73415202     0.11000
H888        H  0.29269019  0.39946314  0.74658415     0.13000
C889        C  0.96153909  0.18100405  0.57443245     0.19100
C890        C  0.94565549  0.20584661  0.57244039    -0.19000
C891        C  0.92805197  0.21056188  0.54951277    -0.11300
C892        C  0.92596094  0.19053472  0.52806866     0.21300
C893        C  0.94219267  0.16604756  0.52997655    -0.20600
C894        C  0.95972380  0.16136791  0.55279052    -0.11500
C895        C  0.90716155  0.19373859  0.50346569    -0.15600
C896        C  0.88644188  0.21284369  0.50105761    -0.29500
C897        C  0.98130409  0.17517341  0.59775999    -0.03800
C898        C  0.98110767  0.18853703  0.62245890    -0.40300
H899        H  0.94709328  0.22199266  0.58814657     0.12500
H900        H  0.91650872  0.23003444  0.54866665     0.12100
H901        H  0.94117771  0.15027236  0.51379156     0.11500
H902        H  0.97190303  0.14220207  0.55354681     0.11800
H903        H  0.90941665  0.17816748  0.48710559     0.14500
H904        H  0.88279456  0.22820693  0.51725371     0.13300
H905        H  0.99686723  0.15888750  0.59433956     0.11000
H906        H  0.96540556  0.20432316  0.62695714     0.13000
C907        C  0.90348006  0.02598348  0.69622245     0.19100
C908        C  0.93188019  0.02034803  0.70128356    -0.19000
C909        C  0.95139767  0.04218576  0.70235338    -0.11300
C910        C  0.94285898  0.06999510  0.69769883     0.21300
C911        C  0.91451101  0.07561603  0.69242889    -0.20600
C912        C  0.89489399  0.05386782  0.69200750    -0.11500
C913        C  0.96346965  0.09301044  0.69535673    -0.15600
C914        C  0.98656516  0.09480847  0.71131055    -0.29500
C915        C  0.88365951  0.00229037  0.69331664    -0.03800
C916        C  0.85657801  0.00396624  0.70077463    -0.40300
H917        H  0.93899710  0.99896070  0.70416013     0.12500
H918        H  0.97327469  0.03720037  0.70567113     0.12100
H919        H  0.90761066  0.09686409  0.68828626     0.11500
H920        H  0.87326738  0.05877881  0.68728205     0.11800
H921        H  0.95933304  0.10921152  0.67994624     0.14500
H922        H  0.98988135  0.08014320  0.72830781     0.13300
H923        H  0.89183388  0.98258884  0.68534776     0.11000
H924        H  0.84863872  0.02274829  0.71082479     0.13000
C925        C  0.13434773  0.32875657  0.77605806     0.19100
C926        C  0.13248953  0.31794341  0.74902017    -0.19000
C927        C  0.12007331  0.29189258  0.74414058    -0.11300
C928        C  0.10907978  0.27593248  0.76628332     0.21300
C929        C  0.11022060  0.28704048  0.79327420    -0.20600
C930        C  0.12284181  0.31311514  0.79820181    -0.11500
C931        C  0.09407396  0.24906033  0.76112182    -0.15600
C932        C  0.10019179  0.23271126  0.73920984    -0.29500
C933        C  0.14785360  0.35661025  0.78009454    -0.03800
C934        C  0.15968595  0.36450193  0.80422536    -0.40300
H935        H  0.14068886  0.32972218  0.73154258     0.12500
H936        H  0.11840142  0.28477970  0.72283128     0.12100
H937        H  0.10121601  0.27556834  0.81055454     0.11500
H938        H  0.12292877  0.32114409  0.81924084     0.11800
H939        H  0.07610941  0.24400717  0.77407950     0.14500
H940        H  0.11807485  0.23778287  0.72620572     0.13300
H941        H  0.14946881  0.37043622  0.76217327     0.11000
H942        H  0.15970835  0.35029086  0.82186474     0.13000
C943        C  0.15638013  0.19089603  0.61633637     0.19100
C944        C  0.17585511  0.17380586  0.60248154    -0.19000
C945        C  0.20097664  0.18511394  0.59226105    -0.11300
C946        C  0.20718146  0.21371248  0.59624545     0.21300
C947        C  0.18803460  0.23039897  0.61097666    -0.20600
C948        C  0.16303931  0.21919930  0.62094829    -0.11500
C949        C  0.23229320  0.22790855  0.58455334    -0.15600
C950        C  0.25328759  0.21570026  0.57014062    -0.29500
C951        C  0.12983829  0.17876009  0.62704510    -0.03800
C952        C  0.10628951  0.19413337  0.62951204    -0.40300
H953        H  0.17137320  0.15179626  0.59912072     0.12500
H954        H  0.21507590  0.17148409  0.58104912     0.12100
H955        H  0.19229761  0.25241188  0.61463522     0.11500
H956        H  0.14913632  0.23274626  0.63258033     0.11800
H957        H  0.23288795  0.25053361  0.58726013     0.14500
H958        H  0.25408035  0.19319683  0.56716993     0.13300
H959        H  0.12989636  0.15693466  0.63360337     0.11000
H960        H  0.10581118  0.21555624  0.62182920     0.13000
C961        C  0.34904348  0.90048222  0.22230187     0.19100
C962        C  0.34751759  0.92807162  0.21233208    -0.19000
C963        C  0.32687621  0.94640211  0.22196696    -0.11300
C964        C  0.30672482  0.93748393  0.24130523     0.21300
C965        C  0.30705863  0.90938063  0.25017940    -0.20600
C966        C  0.32810108  0.89102447  0.24080654    -0.11500
C967        C  0.28859681  0.95916735  0.25429685    -0.15600
C968        C  0.26287787  0.95511562  0.26532783    -0.29500
C969        C  0.37327751  0.88281844  0.21345352    -0.03800
C970        C  0.38394294  0.86196580  0.22911397    -0.40300
H971        H  0.36311777  0.93588020  0.19791734     0.12500
H972        H  0.32714907  0.96797355  0.21485975     0.12100
H973        H  0.29198617  0.90196034  0.26530595     0.11500
H974        H  0.32810553  0.86965132  0.24836882     0.11800
H975        H  0.29725581  0.98027222  0.25463335     0.14500
H976        H  0.25234197  0.93502724  0.26349911     0.13300
H977        H  0.38412776  0.88870063  0.19444650     0.11000
H978        H  0.37409883  0.85659075  0.24875595     0.13000
C979        C  0.27854732  0.18640077  0.42810973     0.19100
C980        C  0.29506537  0.16944528  0.41080752    -0.19000
C981        C  0.28294708  0.14827019  0.39465213    -0.11300
C982        C  0.25390453  0.14315116  0.39576811     0.21300
C983        C  0.23721811  0.16069890  0.41234407    -0.20600
C984        C  0.24935199  0.18196174  0.42850156    -0.11500
C985        C  0.24053581  0.11963119  0.38012210    -0.15600
C986        C  0.25456615  0.09610168  0.37333647    -0.29500
C987        C  0.29284346  0.20643524  0.44726276    -0.03800
C988        C  0.27994676  0.22801018  0.46004484    -0.40300
H989        H  0.31755451  0.17237241  0.41003277     0.12500
H990        H  0.29648206  0.13598266  0.38136772     0.12100
H991        H  0.21480661  0.15735992  0.41349787     0.11500
H992        H  0.23585652  0.19403304  0.44200503     0.11800
H993        H  0.21837825  0.12118593  0.37516673     0.14500
H994        H  0.27630427  0.09376882  0.37950353     0.13300
H995        H  0.31470341  0.20228551  0.45208965     0.11000
H996        H  0.25835025  0.23301675  0.45511098     0.13000
C997        C  0.90462698  0.22501804  0.33561150     0.19100
C998        C  0.90413802  0.21763863  0.30730381    -0.19000
C999        C  0.92349589  0.22936055  0.28854559    -0.11300
C1000       C  0.94395725  0.24849185  0.29794591     0.21300
C1001       C  0.94458719  0.25533849  0.32634431    -0.20600
C1002       C  0.92537042  0.24374706  0.34490696    -0.11500
C1003       C  0.96603107  0.26106858  0.27982925    -0.15600
C1004       C  0.96854966  0.25776277  0.25203915    -0.29500
C1005       C  0.88403825  0.21264858  0.35550305    -0.03800
C1006       C  0.87508229  0.22722609  0.37776285    -0.40300
H1007       H  0.88861608  0.20296644  0.29966780     0.12500
H1008       H  0.92243734  0.22311061  0.26696633     0.12100
H1009       H  0.96029999  0.26959697  0.33438284     0.11500
H1010       H  0.92721864  0.24913768  0.36670627     0.11800
H1011       H  0.98189105  0.27341705  0.29047400     0.14500
H1012       H  0.95330581  0.24575033  0.24033842     0.13300
H1013       H  0.87617477  0.19160512  0.35178316     0.11000
H1014       H  0.88170455  0.24887474  0.38021487     0.13000
C1015       C  0.13148585  0.13878220  0.29391314     0.19100
C1016       C  0.13452860  0.16526099  0.30648133    -0.19000
C1017       C  0.11897366  0.18839683  0.29688398    -0.11300
C1018       C  0.09974232  0.18508964  0.27491966     0.21300
C1019       C  0.09632542  0.15841689  0.26303629    -0.20600
C1020       C  0.11197821  0.13561722  0.27229871    -0.11500
C1021       C  0.08193205  0.20803953  0.26375566    -0.15600
C1022       C  0.08666716  0.23591918  0.26587521    -0.29500
C1023       C  0.14812963  0.11436205  0.30376236    -0.03800
C1024       C  0.15706929  0.09433707  0.28608849    -0.40300
H1025       H  0.14918425  0.16808687  0.32347169     0.12500
H1026       H  0.12172643  0.20853284  0.30687716     0.12100
H1027       H  0.08144527  0.15514544  0.24630935     0.11500
H1028       H  0.10842218  0.11536713  0.26275675     0.11800
H1029       H  0.06433251  0.20107399  0.25116283     0.14500
H1030       H  0.10431661  0.24396223  0.27766085     0.13300
H1031       H  0.15390998  0.11329469  0.32562473     0.11000
H1032       H  0.15361797  0.09679588  0.26387110     0.13000
C1033       C  0.14572950  0.39103705  0.24643688     0.19100
C1034       C  0.15054942  0.40114578  0.27344008    -0.19000
C1035       C  0.17194711  0.42047949  0.27882370    -0.11300
C1036       C  0.18940691  0.43031541  0.25723040     0.21300
C1037       C  0.18457495  0.42022028  0.23016700    -0.20600
C1038       C  0.16308541  0.40084106  0.22477161    -0.11500
C1039       C  0.21146356  0.45229413  0.26178866    -0.15600
C1040       C  0.22114479  0.45946461  0.28717377    -0.29500
C1041       C  0.12138941  0.37177654  0.24176953    -0.03800
C1042       C  0.11755984  0.35617710  0.21867531    -0.40300
H1043       H  0.13735978  0.39436579  0.29050438     0.12500
H1044       H  0.17390407  0.42815338  0.29986775     0.12100
H1045       H  0.19726741  0.42765033  0.21300082     0.11500
H1046       H  0.15977638  0.39433903  0.20348589     0.11800
H1047       H  0.21931527  0.46353821  0.24372456     0.14500
H1048       H  0.21397643  0.44822890  0.30541969     0.13300
H1049       H  0.10583811  0.37043060  0.25822595     0.11000
H1050       H  0.13316704  0.35630374  0.20230549     0.13000
C1051       C  0.25870341  0.34490477  0.91575150     0.19100
C1052       C  0.24062242  0.32793167  0.93144264    -0.19000
C1053       C  0.25107842  0.30560810  0.94728682    -0.11300
C1054       C  0.28002598  0.29984564  0.94786033     0.21300
C1055       C  0.29812820  0.31724411  0.93264531    -0.20600
C1056       C  0.28767100  0.33949041  0.91676801    -0.11500
C1057       C  0.29243646  0.27721996  0.96535281    -0.15600
C1058       C  0.27780895  0.25558233  0.97602456    -0.29500
C1059       C  0.24676518  0.36847116  0.89923381    -0.03800
C1060       C  0.25948964  0.37919018  0.87662428    -0.40300
H1061       H  0.21827956  0.33193682  0.93140959     0.12500
H1062       H  0.23641112  0.29346807  0.95946093     0.12100
H1063       H  0.32054325  0.31370952  0.93316462     0.11500
H1064       H  0.30244778  0.35268871  0.90584493     0.11800
H1065       H  0.31467045  0.27878626  0.97004468     0.14500
H1066       H  0.25574060  0.25305977  0.97128914     0.13300
H1067       H  0.22628693  0.37642272  0.90516898     0.11000
H1068       H  0.27908976  0.37032739  0.86936305     0.13000
C1069       C  0.15948584  0.26081784  0.13134077     0.19100
C1070       C  0.17430267  0.27692138  0.11173589    -0.19000
C1071       C  0.20134299  0.26916249  0.10340309    -0.11300
C1072       C  0.21413404  0.24517403  0.11478269     0.21300
C1073       C  0.19970537  0.22971246  0.13503272    -0.20600
C1074       C  0.17286092  0.23748308  0.14341097    -0.11500
C1075       C  0.24042748  0.23310308  0.10360948    -0.15600
C1076       C  0.25930179  0.24679957  0.08778236    -0.29500
C1077       C  0.13063684  0.26950637  0.13934117    -0.03800
C1078       C  0.11255627  0.25285732  0.15318682    -0.40300
H1079       H  0.16466366  0.29520171  0.10234821     0.12500
H1080       H  0.21156338  0.28128031  0.08730798     0.12100
H1081       H  0.20906722  0.21111505  0.14408282     0.11500
H1082       H  0.16293032  0.22504498  0.15939071     0.11800
H1083       H  0.24327855  0.21072793  0.10702128     0.14500
H1084       H  0.25824326  0.26936629  0.08505279     0.13300
H1085       H  0.12426348  0.29076976  0.13416102     0.11000
H1086       H  0.11802489  0.23146710  0.15849288     0.13000
C1087       C  0.29548109  0.10956993  0.14772180     0.19100
C1088       C  0.30667719  0.11650948  0.17389820    -0.19000
C1089       C  0.29764442  0.10259178  0.19798788    -0.11300
C1090       C  0.27740044  0.08124294  0.19612092     0.21300
C1091       C  0.26686207  0.07392886  0.16981557    -0.20600
C1092       C  0.27576513  0.08781800  0.14592170    -0.11500
C1093       C  0.26641312  0.06556387  0.22044826    -0.15600
C1094       C  0.27096252  0.07144225  0.24757067    -0.29500
C1095       C  0.30519597  0.12478552  0.12258243    -0.03800
C1096       C  0.28946138  0.12751582  0.09942916    -0.40300
H1097       H  0.32223308  0.13295538  0.17573203     0.12500
H1098       H  0.30663544  0.10855106  0.21776539     0.12100
H1099       H  0.25151672  0.05731554  0.16766817     0.11500
H1100       H  0.26743399  0.08109819  0.12608080     0.11800
H1101       H  0.25276523  0.04803196  0.21537506     0.14500
H1102       H  0.28444395  0.08858102  0.25394077     0.13300
H1103       H  0.32550113  0.13508277  0.12360311     0.11000
H1104       H  0.26829052  0.11924385  0.09872384     0.13000
C1105       C  0.43872287  0.22793645  0.19394870     0.19100
C1106       C  0.44385357  0.20660027  0.17454261    -0.19000
C1107       C  0.42556808  0.20218805  0.15215998    -0.11300
C1108       C  0.40153386  0.21908527  0.14873400     0.21300
C1109       C  0.39554750  0.23920175  0.16921548    -0.20600
C1110       C  0.41377913  0.24353108  0.19160234    -0.11500
C1111       C  0.38240121  0.21706030  0.12417373    -0.15600
C1112       C  0.38711058  0.20082430  0.10172878    -0.29500
C1113       C  0.46065943  0.23466634  0.21502609    -0.03800
C1114       C  0.46434229  0.26091331  0.22453814    -0.40300
H1115       H  0.46267791  0.19399125  0.17607354     0.12500
H1116       H  0.43084458  0.18582412  0.13756958     0.12100
H1117       H  0.37693726  0.25212196  0.16758752     0.11500
H1118       H  0.40841730  0.25940126  0.20676614     0.11800
H1119       H  0.36369672  0.23009678  0.12433989     0.14500
H1120       H  0.40533531  0.18734079  0.10066253     0.13300
H1121       H  0.47631419  0.21882102  0.21983992     0.11000
H1122       H  0.45018161  0.27741764  0.21785566     0.13000
C1123       C  0.85117423  0.56807810  0.73632150     0.19100
C1124       C  0.83049284  0.55636272  0.75355424    -0.19000
C1125       C  0.80748892  0.54209156  0.74212547    -0.11300
C1126       C  0.80482623  0.53905574  0.71306052     0.21300
C1127       C  0.82565019  0.55067106  0.69594196    -0.20600
C1128       C  0.84851572  0.56492203  0.70732976    -0.11500
C1129       C  0.78243686  0.52195271  0.69955024    -0.15600
C1130       C  0.75967636  0.51131833  0.71244983    -0.29500
C1131       C  0.87572028  0.58259062  0.74905820    -0.03800
C1132       C  0.89007173  0.60283912  0.73570516    -0.40300
H1133       H  0.83219063  0.55818663  0.77596445     0.12500
H1134       H  0.79241920  0.53295004  0.75622121     0.12100
H1135       H  0.82452773  0.54825401  0.67354940     0.11500
H1136       H  0.86442992  0.57271990  0.69330907     0.11800
H1137       H  0.78586509  0.51646826  0.67786293     0.14500
H1138       H  0.75528756  0.51633690  0.73399871     0.13300
H1139       H  0.88147035  0.57721011  0.77029091     0.11000
H1140       H  0.88321708  0.60977421  0.71528675     0.13000
C1141       C  0.74341463  0.33265839  0.57720907     0.19100
C1142       C  0.72649585  0.31014907  0.56851528    -0.19000
C1143       C  0.73756578  0.28859260  0.55190265    -0.11300
C1144       C  0.76569777  0.28950871  0.54329355     0.21300
C1145       C  0.78255433  0.31191542  0.55212251    -0.20600
C1146       C  0.77166736  0.33313913  0.56895111    -0.11500
C1147       C  0.77731141  0.27002267  0.52213747    -0.15600
C1148       C  0.76902424  0.24329797  0.51778188    -0.29500
C1149       C  0.73091616  0.35625587  0.59334144    -0.03800
C1150       C  0.74598726  0.37179411  0.61134687    -0.40300
H1151       H  0.70458000  0.30944972  0.57429616     0.12500
H1152       H  0.72382703  0.27201646  0.54480337     0.12100
H1153       H  0.80414411  0.31340404  0.54533414     0.11500
H1154       H  0.78518210  0.35049375  0.57444273     0.11800
H1155       H  0.79378994  0.27855892  0.50901060     0.14500
H1156       H  0.75413554  0.23323636  0.53161416     0.13300
H1157       H  0.70872875  0.36061587  0.59070386     0.11000
H1158       H  0.76757024  0.36611535  0.61572914     0.13000
C1159       C  0.74961875  0.12795700  0.07039502     0.19100
C1160       C  0.73249032  0.14663734  0.05546036    -0.19000
C1161       C  0.74421650  0.16886392  0.04020048    -0.11300
C1162       C  0.77348637  0.17271696  0.03937084     0.21300
C1163       C  0.79053984  0.15368755  0.05388258    -0.20600
C1164       C  0.77886213  0.13163917  0.06916012    -0.11500
C1165       C  0.78739181  0.19465582  0.02200950    -0.15600
C1166       C  0.77463683  0.21765135  0.01159967    -0.29500
C1167       C  0.73667914  0.10433088  0.08631853    -0.03800
C1168       C  0.74920597  0.09281059  0.10870698    -0.40300
H1169       H  0.70994922  0.14403928  0.05562587     0.12500
H1170       H  0.73030253  0.18242579  0.02860173     0.12100
H1171       H  0.81313532  0.15569907  0.05316738     0.11500
H1172       H  0.79294395  0.11713992  0.07938023     0.11800
H1173       H  0.80932026  0.19121083  0.01698507     0.14500
H1174       H  0.75292216  0.22203194  0.01656750     0.13300
H1175       H  0.71620197  0.09675908  0.07991621     0.11000
H1176       H  0.76883689  0.10149740  0.11614927     0.13000
C1177       C  0.96636707  0.29295577  0.07965125     0.19100
C1178       C  0.96451582  0.31419222  0.05951695    -0.19000
C1179       C  0.94745798  0.31097615  0.03607421    -0.11300
C1180       C  0.93173596  0.28640985  0.03200737     0.21300
C1181       C  0.93367212  0.26490271  0.05196905    -0.20600
C1182       C  0.95073300  0.26815499  0.07556283    -0.11500
C1183       C  0.91180307  0.28555161  0.00812493    -0.15600
C1184       C  0.89902259  0.26238746  0.99796909    -0.29500
C1185       C  0.98412259  0.29807022  0.10479271    -0.03800
C1186       C  0.99289779  0.27769491  0.12213127    -0.40300
H1187       H  0.97614400  0.33353436  0.06204040     0.12500
H1188       H  0.94621690  0.32803092  0.02121199     0.12100
H1189       H  0.92132520  0.24599648  0.05004422     0.11500
H1190       H  0.95080205  0.25150137  0.09080809     0.11800
H1191       H  0.90702190  0.30566869  0.99857929     0.14500
H1192       H  0.90409798  0.24173883  0.00598651     0.13300
H1193       H  0.99110041  0.31941562  0.10860393     0.11000
H1194       H  0.98741330  0.25603711  0.11810307     0.13000
C1195       C  0.76545535  0.37374798  0.78232258     0.19100
C1196       C  0.74863343  0.36234853  0.80342842    -0.19000
C1197       C  0.76060378  0.35050272  0.82713824    -0.11300
C1198       C  0.78985604  0.34991022  0.83043098     0.21300
C1199       C  0.80680346  0.36066105  0.80910826    -0.20600
C1200       C  0.79479741  0.37262388  0.78530596    -0.11500
C1201       C  0.80315211  0.33704146  0.85525448    -0.15600
C1202       C  0.79025560  0.33564153  0.88008869    -0.29500
C1203       C  0.75107290  0.38689334  0.75818075    -0.03800
C1204       C  0.76378153  0.40047251  0.73708007    -0.40300
H1205       H  0.72599759  0.36262566  0.80162054     0.12500
H1206       H  0.74682287  0.34139598  0.84254477     0.12100
H1207       H  0.82941659  0.36002561  0.81100042     0.11500
H1208       H  0.80866996  0.38085428  0.76955596     0.11800
H1209       H  0.82412986  0.32848841  0.85299056     0.14500
H1210       H  0.76987581  0.34527147  0.88301272     0.13300
H1211       H  0.72829127  0.38623747  0.75844633     0.11000
H1212       H  0.78639689  0.40192140  0.73582010     0.13000
C1213       C  0.95200161  0.21773881  0.79729926     0.19100
C1214       C  0.93882545  0.20041399  0.81700317    -0.19000
C1215       C  0.92207259  0.21171718  0.83808578    -0.11300
C1216       C  0.91786941  0.24086564  0.84011574     0.21300
C1217       C  0.93113284  0.25832317  0.82055429    -0.20600
C1218       C  0.94789138  0.24697091  0.79930346    -0.11500
C1219       C  0.90094764  0.25350435  0.86316397    -0.15600
C1220       C  0.87998559  0.23957114  0.87595008    -0.29500
C1221       C  0.97088003  0.20420353  0.77633172    -0.03800
C1222       C  0.98303834  0.21727891  0.75450517    -0.40300
H1223       H  0.94182013  0.17790279  0.81635819     0.12500
H1224       H  0.91313311  0.19750503  0.85321205     0.12100
H1225       H  0.92858443  0.28085991  0.82176978     0.11500
H1226       H  0.95793357  0.26129218  0.78502263     0.11800
H1227       H  0.90559877  0.27488594  0.86945843     0.14500
H1228       H  0.87409534  0.21891235  0.86850981     0.13300
H1229       H  0.97546261  0.18209553  0.77947075     0.11000
H1230       H  0.97884281  0.23921672  0.75036330     0.13000
C1231       C  0.41191996  0.24660454  0.64323411     0.19100
C1232       C  0.43485775  0.26302240  0.65152276    -0.19000
C1233       C  0.45056146  0.25587943  0.67500127    -0.11300
C1234       C  0.44379235  0.23207052  0.69074089     0.21300
C1235       C  0.42010459  0.21618985  0.68321573    -0.20600
C1236       C  0.40432259  0.22336999  0.65969140    -0.11500
C1237       C  0.46272238  0.22394858  0.71394884    -0.15600
C1238       C  0.46616811  0.19720902  0.72213305    -0.29500
C1239       C  0.39647784  0.25498552  0.61764917    -0.03800
C1240       C  0.37819517  0.23855090  0.60383536    -0.40300
H1241       H  0.44098423  0.28124286  0.63949389     0.12500
H1242       H  0.46856850  0.26858573  0.68042610     0.12100
H1243       H  0.41361579  0.19827591  0.69543709     0.11500
H1244       H  0.38618989  0.21075423  0.65474430     0.11800
H1245       H  0.47687528  0.23985926  0.72200027     0.14500
H1246       H  0.45368958  0.18066160  0.71284396     0.13300
H1247       H  0.40095759  0.27573821  0.60938493     0.11000
H1248       H  0.37346000  0.21753427  0.61103901     0.13000
C1249       C  0.46442983  0.17370112  0.89871241     0.19100
C1250       C  0.46926661  0.18671725  0.92444252    -0.19000
C1251       C  0.44767838  0.18899744  0.94404213    -0.11300
C1252       C  0.42103258  0.17774266  0.93834019     0.21300
C1253       C  0.41649103  0.16416176  0.91284649    -0.20600
C1254       C  0.43785848  0.16234544  0.89312142    -0.11500
C1255       C  0.39809214  0.17784366  0.95911643    -0.15600
C1256       C  0.39497161  0.19747419  0.97901488    -0.29500
C1257       C  0.48728742  0.17185673  0.87795434    -0.03800
C1258       C  0.48227800  0.17595928  0.85076930    -0.40300
H1259       H  0.48969459  0.19535442  0.92924758     0.12500
H1260       H  0.45210774  0.19885972  0.96383281     0.12100
H1261       H  0.39629718  0.15490746  0.90817541     0.11500
H1262       H  0.43374243  0.15161168  0.87368927     0.11800
H1263       H  0.38269365  0.16111743  0.95753203     0.14500
H1264       H  0.40903113  0.21534178  0.97998906     0.13300
H1265       H  0.50864762  0.16887632  0.88521383     0.11000
H1266       H  0.46131177  0.18161784  0.84394490     0.13000
C1267       C  0.70623212  0.22410425  0.87244909     0.19100
C1268       C  0.68378102  0.24165987  0.86496748    -0.19000
C1269       C  0.65968004  0.23081679  0.85238330    -0.11300
C1270       C  0.65734261  0.20192823  0.84695072     0.21300
C1271       C  0.68018021  0.18448381  0.85349742    -0.20600
C1272       C  0.70432589  0.19534210  0.86617062    -0.11500
C1273       C  0.63189509  0.18922601  0.83400049    -0.15600
C1274       C  0.60652618  0.20173786  0.83293003    -0.29500
C1275       C  0.73062657  0.23698837  0.88710850    -0.03800
C1276       C  0.75181384  0.22289533  0.89955801    -0.40300
H1277       H  0.68473098  0.26396730  0.86915285     0.12500
H1278       H  0.64316950  0.24528118  0.84681466     0.12100
H1279       H  0.67920411  0.16222379  0.84910419     0.11500
H1280       H  0.72122996  0.18106657  0.87095886     0.11800
H1281       H  0.63408497  0.16825702  0.82539634     0.14500
H1282       H  0.60336884  0.22235988  0.84187575     0.13300
H1283       H  0.73022888  0.25971008  0.88900446     0.11000
H1284       H  0.75297526  0.20021587  0.89865206     0.13000
C1285       C  0.63602430  0.32036709  0.69292647     0.19100
C1286       C  0.62026167  0.30229196  0.67600838    -0.19000
C1287       C  0.60778371  0.27822214  0.68726933    -0.11300
C1288       C  0.61137506  0.27167338  0.71563560     0.21300
C1289       C  0.62816769  0.28923709  0.73211108    -0.20600
C1290       C  0.64038754  0.31323968  0.72094586    -0.11500
C1291       C  0.59691612  0.24810621  0.72980727    -0.15600
C1292       C  0.58056959  0.22859995  0.71757605    -0.29500
C1293       C  0.64817746  0.34631341  0.68102041    -0.03800
C1294       C  0.65135896  0.36975520  0.69627492    -0.40300
H1295       H  0.61697428  0.30722543  0.65423940     0.12500
H1296       H  0.59499329  0.26535295  0.67381976     0.12100
H1297       H  0.63153553  0.28462313  0.75394710     0.11500
H1298       H  0.65332610  0.32613197  0.73431261     0.11800
H1299       H  0.59917842  0.24747859  0.75232371     0.14500
H1300       H  0.57818826  0.22761052  0.69517040     0.13300
H1301       H  0.65410142  0.34627828  0.65918960     0.11000
H1302       H  0.64384380  0.37041166  0.71758976     0.13000
C1303       C  0.68422574  0.03111731  0.72253909     0.19100
C1304       C  0.66827745  0.04896255  0.70561179    -0.19000
C1305       C  0.64772527  0.06623317  0.71711508    -0.11300
C1306       C  0.64264935  0.06610308  0.74600028     0.21300
C1307       C  0.65831482  0.04798635  0.76292709    -0.20600
C1308       C  0.67892519  0.03067701  0.75139843    -0.11500
C1309       C  0.62003978  0.08330419  0.75867502    -0.15600
C1310       C  0.61067203  0.10699561  0.74677506    -0.29500
C1311       C  0.70479703  0.01209995  0.70903904    -0.03800
C1312       C  0.72597244  0.99967720  0.72275502    -0.40300
H1313       H  0.67150958  0.04931676  0.68329529     0.12500
H1314       H  0.63534226  0.07894614  0.70310045     0.12100
H1315       H  0.65443520  0.04706243  0.78512005     0.11500
H1316       H  0.68995986  0.01649368  0.76511922     0.11800
H1317       H  0.61066423  0.07609937  0.77800216     0.14500
H1318       H  0.62072422  0.11500861  0.72815151     0.13300
H1319       H  0.70226585  0.00806065  0.68691002     0.11000
H1320       H  0.72951764  0.00405544  0.74462132     0.13000
C1321       C  0.10016843  0.74874433  0.14601649     0.19100
C1322       C  0.10658438  0.74598589  0.17442277    -0.19000
C1323       C  0.08744421  0.75490226  0.19471947    -0.11300
C1324       C  0.06204826  0.76746313  0.18672185     0.21300
C1325       C  0.05603709  0.77074314  0.15833218    -0.20600
C1326       C  0.07471112  0.76119222  0.13817056    -0.11500
C1327       C  0.04181978  0.77881581  0.20708854    -0.15600
C1328       C  0.03519257  0.76632375  0.23137813    -0.29500
C1329       C  0.12039507  0.73952092  0.12454831    -0.03800
C1330       C  0.11183591  0.72570147  0.10172446    -0.40300
H1331       H  0.12626863  0.73670503  0.18085563     0.12500
H1332       H  0.09276992  0.75266131  0.21651191     0.12100
H1333       H  0.03670324  0.78065112  0.15172448     0.11500
H1334       H  0.06953605  0.76411265  0.11640954     0.11800
H1335       H  0.02967764  0.79687437  0.20028307     0.14500
H1336       H  0.04527678  0.74684802  0.23748891     0.13300
H1337       H  0.14257164  0.74351770  0.12783142     0.11000
H1338       H  0.09001193  0.71945475  0.09982616     0.13000
C1339       C  0.09684724  0.94816006  0.29466856     0.19100
C1340       C  0.08569837  0.93938548  0.26897318    -0.19000
C1341       C  0.06233398  0.92156629  0.26770371    -0.11300
C1342       C  0.04935460  0.91210551  0.29226629     0.21300
C1343       C  0.06036175  0.92106807  0.31792647    -0.20600
C1344       C  0.08366454  0.93886982  0.31919916    -0.11500
C1345       C  0.02521489  0.89208582  0.29258878    -0.15600
C1346       C  0.01059072  0.88313838  0.27012647    -0.29500
C1347       C  0.12186097  0.96714830  0.29463625    -0.03800
C1348       C  0.13649112  0.97502442  0.31746510    -0.40300
H1349       H  0.09527237  0.94618280  0.24967998     0.12500
H1350       H  0.05493984  0.91506539  0.24745996     0.12100
H1351       H  0.05090045  0.91417425  0.33724382     0.11500
H1352       H  0.09097412  0.94522196  0.33950516     0.11800
H1353       H  0.01946882  0.88375470  0.31286290     0.14500
H1354       H  0.01529881  0.89097886  0.24948288     0.13300
H1355       H  0.12867790  0.97499430  0.27450901     0.11000
H1356       H  0.13069334  0.96750630  0.33793180     0.13000
C1357       C  0.80870667  0.92487499  0.21479091     0.19100
C1358       C  0.82733916  0.90896259  0.19870852    -0.19000
C1359       C  0.84893339  0.89373397  0.21123775    -0.11300
C1360       C  0.85242743  0.89398681  0.24034632     0.21300
C1361       C  0.83388382  0.90996918  0.25648844    -0.20600
C1362       C  0.81219207  0.92520898  0.24392976    -0.11500
C1363       C  0.87608187  0.87908538  0.25415220    -0.15600
C1364       C  0.88846604  0.85651724  0.24279773    -0.29500
C1365       C  0.78795045  0.94290608  0.20010937    -0.03800
C1366       C  0.76567914  0.95491313  0.21245310    -0.40300
H1367       H  0.82555165  0.90877488  0.17622624     0.12500
H1368       H  0.86336590  0.88262043  0.19787363     0.12100
H1369       H  0.83637622  0.91090532  0.27888434     0.11500
H1370       H  0.79897408  0.93792086  0.25710548     0.11800
H1371       H  0.88335599  0.88678609  0.27419024     0.14500
H1372       H  0.88033351  0.84773910  0.22358091     0.13300
H1373       H  0.79205102  0.94757249  0.17833876     0.11000
H1374       H  0.76065693  0.95021655  0.23395776     0.13000
C1375       C  0.75539064  0.82664572  0.59577265     0.19100
C1376       C  0.73410425  0.80697680  0.60092994    -0.19000
C1377       C  0.72952934  0.78445596  0.58281933    -0.11300
C1378       C  0.74605576  0.78111787  0.55878810     0.21300
C1379       C  0.76820322  0.79993270  0.55429771    -0.20600
C1380       C  0.77284646  0.82245010  0.57245199    -0.11500
C1381       C  0.73979479  0.75952529  0.53714562    -0.15600
C1382       C  0.71374947  0.74961747  0.53288790    -0.29500
C1383       C  0.75812931  0.85110473  0.61510595    -0.03800
C1384       C  0.77632536  0.87244714  0.61169258    -0.40300
H1385       H  0.72061152  0.80924615  0.61890045     0.12500
H1386       H  0.71287912  0.76988697  0.58768598     0.12100
H1387       H  0.78145144  0.79774964  0.53613355     0.11500
H1388       H  0.78990885  0.83647792  0.56767115     0.11800
H1389       H  0.75592980  0.75476560  0.52191504     0.14500
H1390       H  0.69681269  0.75637543  0.54633041     0.13300
H1391       H  0.74409468  0.85176474  0.63288886     0.11000
H1392       H  0.79076019  0.87267250  0.59435328     0.13000
C1393       C  0.84440421  0.77508161  0.36090188     0.19100
C1394       C  0.82442181  0.79360986  0.37199419    -0.19000
C1395       C  0.80114274  0.78349494  0.38669359    -0.11300
C1396       C  0.79727809  0.75446286  0.39039414     0.21300
C1397       C  0.81710243  0.73600981  0.37893051    -0.20600
C1398       C  0.84027585  0.74608812  0.36431893    -0.11500
C1399       C  0.77312697  0.74199201  0.40565081    -0.15600
C1400       C  0.75263804  0.75622871  0.41896518    -0.29500
C1401       C  0.86866071  0.78660767  0.34509162    -0.03800
C1402       C  0.89272916  0.77238180  0.34103122    -0.40300
H1403       H  0.82690629  0.81603796  0.36938817     0.12500
H1404       H  0.78637715  0.79852160  0.39488974     0.12100
H1405       H  0.81459984  0.71353634  0.38114249     0.11500
H1406       H  0.85449549  0.73096926  0.35531054     0.11800
H1407       H  0.77242286  0.71920796  0.40609984     0.14500
H1408       H  0.75232013  0.77893477  0.41931973     0.13300
H1409       H  0.86682942  0.80782328  0.33702440     0.11000
H1410       H  0.89560819  0.75175866  0.35009978     0.13000
C1411       C  0.55793495  0.76595371  0.30140258     0.19100
C1412       C  0.57352583  0.78401198  0.31854823    -0.19000
C1413       C  0.58995441  0.77344203  0.34032194    -0.11300
C1414       C  0.59114369  0.74439933  0.34549578     0.21300
C1415       C  0.57581390  0.72632664  0.32820576    -0.20600
C1416       C  0.55945024  0.73686873  0.30640566    -0.11500
C1417       C  0.60642265  0.73226787  0.36972585    -0.15600
C1418       C  0.62759057  0.74526996  0.38301460    -0.29500
C1419       C  0.53848946  0.77846341  0.28044238    -0.03800
C1420       C  0.52577922  0.76381123  0.26002794    -0.40300
H1421       H  0.57247646  0.80649858  0.31550250     0.12500
H1422       H  0.60077078  0.78821129  0.35358687     0.12100
H1423       H  0.57608469  0.70391292  0.33189907     0.11500
H1424       H  0.54729901  0.72210773  0.29438841     0.11800
H1425       H  0.60009180  0.71153665  0.37673242     0.14500
H1426       H  0.63531365  0.76531106  0.37557400     0.13300
H1427       H  0.53351825  0.80056887  0.28271784     0.11000
H1428       H  0.53081587  0.74194376  0.25666491     0.13000
C1429       C  0.69787706  0.53700334  0.56786864     0.19100
C1430       C  0.67260979  0.54810953  0.55769100    -0.19000
C1431       C  0.67223102  0.57321033  0.54266669    -0.11300
C1432       C  0.69725235  0.58785831  0.53744424     0.21300
C1433       C  0.72249327  0.57696763  0.54783488    -0.20600
C1434       C  0.72289885  0.55178583  0.56281258    -0.11500
C1435       C  0.69773250  0.61477570  0.52181959    -0.15600
C1436       C  0.67851457  0.62148409  0.50243794    -0.29500
C1437       C  0.69666395  0.51117331  0.58523523    -0.03800
C1438       C  0.71905700  0.49575561  0.59296069    -0.40300
H1439       H  0.65295813  0.53746955  0.56166678     0.12500
H1440       H  0.65223170  0.58134033  0.53578474     0.12100
H1441       H  0.74201149  0.58801061  0.54434802     0.11500
H1442       H  0.74275347  0.54453303  0.57086405     0.11800
H1443       H  0.71545704  0.62869850  0.52509771     0.14500
H1444       H  0.66184448  0.60687212  0.49738370     0.13300
H1445       H  0.67607321  0.50492951  0.59263483     0.11000
H1446       H  0.73988415  0.50084163  0.58558183     0.13000
C1447       C  0.64183275  0.39536883  0.25234511     0.19100
C1448       C  0.66014991  0.40894113  0.27085124    -0.19000
C1449       C  0.68340135  0.42392357  0.26084365    -0.11300
C1450       C  0.68860720  0.42567802  0.23199191     0.21300
C1451       C  0.67017075  0.41215510  0.21368271    -0.20600
C1452       C  0.64703772  0.39747311  0.22359714    -0.11500
C1453       C  0.71133141  0.44289650  0.21939191    -0.15600
C1454       C  0.73111086  0.45715179  0.23349360    -0.29500
C1455       C  0.61700115  0.37978670  0.26308258    -0.03800
C1456       C  0.60565964  0.35847549  0.24863070    -0.40300
H1457       H  0.65644783  0.40795736  0.29306978     0.12500
H1458       H  0.69673532  0.43437007  0.27576602     0.12100
H1459       H  0.67327209  0.41348332  0.19138453     0.11500
H1460       H  0.63289151  0.38848564  0.20845214     0.11800
H1461       H  0.71074030  0.44515026  0.19687981     0.14500
H1462       H  0.73277628  0.45552643  0.25592826     0.13300
H1463       H  0.60824219  0.38560588  0.28312820     0.11000
H1464       H  0.61563448  0.35145164  0.22958929     0.13000
C1465       C  0.79582427  0.38019550  0.04045890     0.19100
C1466       C  0.77091872  0.38872789  0.05358319    -0.19000
C1467       C  0.77076646  0.41128995  0.07238435    -0.11300
C1468       C  0.79571800  0.42575508  0.07869217     0.21300
C1469       C  0.82061086  0.41697907  0.06575129    -0.20600
C1470       C  0.82073574  0.39457412  0.04694136    -0.11500
C1471       C  0.79739169  0.44901067  0.09953824    -0.15600
C1472       C  0.77531197  0.46322316  0.11007943    -0.29500
C1473       C  0.79531469  0.35575297  0.02092707    -0.03800
C1474       C  0.81451115  0.35188891  0.00068058    -0.40300
H1475       H  0.75146238  0.37786252  0.04928235     0.12500
H1476       H  0.75120799  0.41680448  0.08226559     0.12100
H1477       H  0.84023476  0.42737518  0.07041782     0.11500
H1478       H  0.84057139  0.38822323  0.03811356     0.11800
H1479       H  0.81825677  0.45491026  0.10643025     0.14500
H1480       H  0.75421902  0.45865321  0.10309240     0.13300
H1481       H  0.77795856  0.34109656  0.02256617     0.11000
H1482       H  0.83086184  0.36736601  0.99755794     0.13000
C1483       C  0.94971429  0.40013942  0.21051248     0.19100
C1484       C  0.92144371  0.39434740  0.21599194    -0.19000
C1485       C  0.90058942  0.41397681  0.20968365    -0.11300
C1486       C  0.90757446  0.44026130  0.19816368     0.21300
C1487       C  0.93587634  0.44610384  0.19277753    -0.20600
C1488       C  0.95675156  0.42641439  0.19902987    -0.11500
C1489       C  0.88598758  0.46190393  0.19139088    -0.15600
C1490       C  0.86082045  0.46276019  0.20393990    -0.29500
C1491       C  0.97102882  0.37809677  0.21665911    -0.03800
C1492       C  0.99572332  0.37644753  0.20327700    -0.40300
H1493       H  0.91538091  0.37427613  0.22467206     0.12500
H1494       H  0.87903765  0.40811993  0.21340731     0.12100
H1495       H  0.94190600  0.46613587  0.18398792     0.11500
H1496       H  0.97832908  0.43206820  0.19512257     0.11800
H1497       H  0.89146900  0.47835428  0.17670715     0.14500
H1498       H  0.85573073  0.44746932  0.21987157     0.13300
H1499       H  0.96526165  0.36140614  0.23095724     0.11000
H1500       H  0.00099675  0.39182832  0.18750439     0.13000
C1501       C  0.89704738  0.68500506  0.22757236     0.19100
C1502       C  0.88222848  0.66692561  0.24532660    -0.19000
C1503       C  0.86894708  0.64301503  0.23507779    -0.11300
C1504       C  0.87037254  0.63620898  0.20665226     0.21300
C1505       C  0.88473027  0.65450812  0.18865486    -0.20600
C1506       C  0.89812326  0.67861457  0.19897878    -0.11500
C1507       C  0.85614674  0.61078517  0.19533392    -0.15600
C1508       C  0.85126109  0.58777652  0.21094765    -0.29500
C1509       C  0.91149564  0.70945300  0.24050073    -0.03800
C1510       C  0.92359245  0.73116266  0.22697726    -0.40300
H1511       H  0.88080243  0.67135436  0.26739766     0.12500
H1512       H  0.85719190  0.63021671  0.24952633     0.12100
H1513       H  0.88589500  0.64993128  0.16661001     0.11500
H1514       H  0.90948719  0.69181051  0.18458923     0.11800
H1515       H  0.84961443  0.61101024  0.17367212     0.14500
H1516       H  0.85902683  0.58680067  0.23214919     0.13300
H1517       H  0.91207808  0.70945918  0.26312047     0.11000
H1518       H  0.92328512  0.73242093  0.20445152     0.13000
C1519       C  0.70927018  0.62926867  0.33782519     0.19100
C1520       C  0.69193313  0.62001858  0.31603088    -0.19000
C1521       C  0.70334358  0.60657290  0.29269239    -0.11300
C1522       C  0.73247447  0.60235888  0.29068350     0.21300
C1523       C  0.74974322  0.61241394  0.31211817    -0.20600
C1524       C  0.73839070  0.62572297  0.33532969    -0.11500
C1525       C  0.74621471  0.58732969  0.26725855    -0.15600
C1526       C  0.73301215  0.57174820  0.24785610    -0.29500
C1527       C  0.69661447  0.64348737  0.36233071    -0.03800
C1528       C  0.70938335  0.64486249  0.38732747    -0.40300
H1529       H  0.66945909  0.62297534  0.31719421     0.12500
H1530       H  0.68927424  0.59969789  0.27644226     0.12100
H1531       H  0.77226298  0.60980538  0.31102974     0.11500
H1532       H  0.75265802  0.63356798  0.35097864     0.11800
H1533       H  0.76899011  0.58765282  0.26716213     0.14500
H1534       H  0.71035631  0.57036002  0.24727780     0.13300
H1535       H  0.67602481  0.65287902  0.35975738     0.11000
H1536       H  0.72927102  0.63440421  0.39071792     0.13000
C1537       C  0.73093348  0.66097479  0.04751958     0.19100
C1538       C  0.71409562  0.64289668  0.06335003    -0.19000
C1539       C  0.72600781  0.62192300  0.07989974    -0.11300
C1540       C  0.75528681  0.61844759  0.08122103     0.21300
C1541       C  0.77221729  0.63614968  0.06503255    -0.20600
C1542       C  0.76026041  0.65726437  0.04843535    -0.11500
C1543       C  0.76834992  0.59597747  0.09863985    -0.15600
C1544       C  0.75602186  0.58658983  0.12203017    -0.29500
C1545       C  0.71675854  0.68184125  0.02901613    -0.03800
C1546       C  0.72973084  0.70352714  0.01648180    -0.40300
H1547       H  0.69148765  0.64478789  0.06268532     0.12500
H1548       H  0.71207164  0.60804811  0.09109634     0.12100
H1549       H  0.79477437  0.63366231  0.06526284     0.11500
H1550       H  0.77409936  0.67003717  0.03595744     0.11800
H1551       H  0.78845404  0.58738201  0.09237627     0.14500
H1552       H  0.73676790  0.59642335  0.12901982     0.13300
H1553       H  0.69457210  0.67870747  0.02498377     0.11000
H1554       H  0.75173073  0.70754712  0.02037813     0.13000
C1555       C  0.59866561  0.71749887  0.84577878     0.19100
C1556       C  0.60472843  0.71877409  0.81719465    -0.19000
C1557       C  0.58449767  0.71102385  0.79741431    -0.11300
C1558       C  0.55816298  0.70110842  0.80605976     0.21300
C1559       C  0.55233783  0.69955137  0.83464646    -0.20600
C1560       C  0.57220292  0.70794801  0.85429671    -0.11500
C1561       C  0.53679504  0.69048348  0.78625216    -0.15600
C1562       C  0.53218097  0.70105355  0.76061050    -0.29500
C1563       C  0.62046382  0.72473685  0.86663062    -0.03800
C1564       C  0.61432550  0.73923318  0.88983202    -0.40300
H1565       H  0.62512226  0.72580777  0.81020200     0.12500
H1566       H  0.58976020  0.71192264  0.77552790     0.12100
H1567       H  0.53229474  0.69170377  0.84182246     0.11500
H1568       H  0.56716426  0.70617146  0.87619512     0.11800
H1569       H  0.52262580  0.67449152  0.79416562     0.14500
H1570       H  0.54440846  0.71870747  0.75308857     0.13300
H1571       H  0.64202236  0.71871740  0.86248186     0.11000
H1572       H  0.59330299  0.74751063  0.89267411     0.13000
C1573       C  0.34312011  0.57923563  0.73993542     0.19100
C1574       C  0.32761746  0.56111811  0.72269686    -0.19000
C1575       C  0.30519581  0.54532944  0.73334951    -0.11300
C1576       C  0.29782798  0.54727559  0.76166628     0.21300
C1577       C  0.31278416  0.56602689  0.77860654    -0.20600
C1578       C  0.33512313  0.58168072  0.76803596    -0.11500
C1579       C  0.27736887  0.52808734  0.77547296    -0.15600
C1580       C  0.26004553  0.50988371  0.76248758    -0.29500
C1581       C  0.36857870  0.59356494  0.72855346    -0.03800
C1582       C  0.38121920  0.61547675  0.74112714    -0.40300
H1583       H  0.33333113  0.55862347  0.70102710     0.12500
H1584       H  0.29460559  0.53089437  0.71957190     0.12100
H1585       H  0.30786876  0.56781145  0.80054666     0.11500
H1586       H  0.34669012  0.59463471  0.78245362     0.11800
H1587       H  0.27806013  0.52767811  0.79808991     0.14500
H1588       H  0.25788831  0.51006981  0.74002680     0.13300
H1589       H  0.37740964  0.58554142  0.70929983     0.11000
H1590       H  0.37204967  0.62472288  0.75958580     0.13000
C1591       C  0.59240333  0.52239522  0.69803613     0.19100
C1592       C  0.58245280  0.53244861  0.72369026    -0.19000
C1593       C  0.55779768  0.54842579  0.72512752    -0.11300
C1594       C  0.54266816  0.55479509  0.70075348     0.21300
C1595       C  0.55261347  0.54455835  0.67521129    -0.20600
C1596       C  0.57715058  0.52873628  0.67378209    -0.11500
C1597       C  0.51788547  0.57376745  0.70007264    -0.15600
C1598       C  0.50480433  0.58503288  0.72233073    -0.29500
C1599       C  0.61910274  0.50618128  0.69706440    -0.03800
C1600       C  0.62532073  0.48821054  0.67634569    -0.40300
H1601       H  0.59389523  0.52805585  0.74267837     0.12500
H1602       H  0.55120120  0.55616486  0.74520715     0.12100
H1603       H  0.54168080  0.54940244  0.65602518     0.11500
H1604       H  0.58442508  0.52230458  0.65346634     0.11800
H1605       H  0.51070868  0.57986970  0.67945852     0.14500
H1606       H  0.51062664  0.57922018  0.74336266     0.13300
H1607       H  0.63351551  0.50820482  0.71447220     0.11000
H1608       H  0.61024705  0.48434928  0.65988451     0.13000
C1609       C  0.57264822  0.69465536  0.54326203     0.19100
C1610       C  0.56429721  0.66852411  0.55393845    -0.19000
C1611       C  0.54956293  0.66659562  0.57893685    -0.11300
C1612       C  0.54255399  0.69089312  0.59392254     0.21300
C1613       C  0.55087948  0.71708919  0.58336893    -0.20600
C1614       C  0.56567966  0.71904555  0.55824382    -0.11500
C1615       C  0.52703527  0.68954129  0.62074596    -0.15600
C1616       C  0.50929722  0.66853857  0.62712950    -0.29500
C1617       C  0.59016476  0.69472359  0.51762618    -0.03800
C1618       C  0.60006607  0.71761595  0.50429863    -0.40300
H1619       H  0.56966130  0.64933199  0.54312501     0.12500
H1620       H  0.54433320  0.64595696  0.58671502     0.12100
H1621       H  0.54587847  0.73612804  0.59460568     0.11500
H1622       H  0.57191726  0.73959533  0.55108819     0.11800
H1623       H  0.52880309  0.70728061  0.63483221     0.14500
H1624       H  0.50544576  0.65185457  0.61227152     0.13300
H1625       H  0.59645818  0.67421451  0.51000520     0.11000
H1626       H  0.59423581  0.73857542  0.51075847     0.13000
C1627       C  0.19729714  0.04758174  0.75020037     0.19100
C1628       C  0.18391379  0.04681852  0.72413674    -0.19000
C1629       C  0.16230884  0.06569422  0.71765404    -0.11300
C1630       C  0.15354729  0.08589464  0.73720468     0.21300
C1631       C  0.16776784  0.08742994  0.76273258    -0.20600
C1632       C  0.18935273  0.06865059  0.76917976    -0.11500
C1633       C  0.13003276  0.10593148  0.73197529    -0.15600
C1634       C  0.10996165  0.10207100  0.71260510    -0.29500
C1635       C  0.21879658  0.02574325  0.75700579    -0.03800
C1636       C  0.22634574  0.01923259  0.78327936    -0.40300
H1637       H  0.18984665  0.03120268  0.70887439     0.12500
H1638       H  0.15271136  0.06434733  0.69731414     0.12100
H1639       H  0.16191637  0.10307543  0.77799186     0.11500
H1640       H  0.19968310  0.07095351  0.78905632     0.11800
H1641       H  0.12847719  0.12404994  0.74559152     0.14500
H1642       H  0.11038005  0.08369118  0.69934870     0.13300
H1643       H  0.22684772  0.01300114  0.74006006     0.11000
H1644       H  0.21716191  0.03040753  0.80063835     0.13000
C1645       C  0.26392539  0.02529073  0.92814860     0.19100
C1646       C  0.25234914  0.05213279  0.92504659    -0.19000
C1647       C  0.26030865  0.07397448  0.94286224    -0.11300
C1648       C  0.27998705  0.06925443  0.96428529     0.21300
C1649       C  0.28990817  0.04187174  0.96852682    -0.20600
C1650       C  0.28200678  0.02012788  0.95070940    -0.11500
C1651       C  0.29078306  0.09193718  0.98273587    -0.15600
C1652       C  0.28771518  0.11954861  0.97768124    -0.29500
C1653       C  0.25884463  0.00374053  0.90637552    -0.03800
C1654       C  0.27972362  0.98685960  0.89804594    -0.40300
H1655       H  0.23804735  0.05651124  0.90807144     0.12500
H1656       H  0.25115035  0.09440114  0.93945725     0.12100
H1657       H  0.30448603  0.03740509  0.98524759     0.11500
H1658       H  0.29057001  0.99940078  0.95424340     0.11800
H1659       H  0.30215466  0.08554645  0.00130190     0.14500
H1660       H  0.27646132  0.12688382  0.95950098     0.13300
H1661       H  0.23942958  0.00436112  0.89456682     0.11000
H1662       H  0.30006281  0.98850128  0.90807828     0.13000
C1663       C  0.40666659  0.01730434  0.80105063     0.19100
C1664       C  0.43148971  0.01131400  0.78653716    -0.19000
C1665       C  0.45221225  0.03191372  0.78320045    -0.11300
C1666       C  0.44863995  0.05871810  0.79488741     0.21300
C1667       C  0.42404156  0.06444722  0.80982221    -0.20600
C1668       C  0.40319230  0.04409848  0.81271255    -0.11500
C1669       C  0.47071509  0.08064654  0.79378912    -0.15600
C1670       C  0.48969023  0.08340357  0.77318259    -0.29500
C1671       C  0.38478605  0.99533334  0.80420315    -0.03800
C1672       C  0.35733541  0.00161083  0.80332116    -0.40300
H1673       H  0.43473876  0.99072159  0.77759450     0.12500
H1674       H  0.47123908  0.02659344  0.77218075     0.12100
H1675       H  0.42096213  0.08479559  0.81937660     0.11500
H1676       H  0.38461528  0.04917627  0.82458995     0.11800
H1677       H  0.47052752  0.09611597  0.81041621     0.14500
H1678       H  0.48910062  0.06962193  0.75521369     0.13300
H1679       H  0.39127246  0.97350584  0.80530653     0.11000
H1680       H  0.35086915  0.02309025  0.79932661     0.13000
C1681       C  0.39464344  0.78614647  0.75629880     0.19100
C1682       C  0.38750524  0.80849068  0.73856078    -0.19000
C1683       C  0.37259485  0.83164787  0.74844159    -0.11300
C1684       C  0.36448639  0.83310827  0.77653700     0.21300
C1685       C  0.37159067  0.81075386  0.79429309    -0.20600
C1686       C  0.38650042  0.78754299  0.78438822    -0.11500
C1687       C  0.34799954  0.85690757  0.78816565    -0.15600
C1688       C  0.34306655  0.88141154  0.77493331    -0.29500
C1689       C  0.41005641  0.76192827  0.74413436    -0.03800
C1690       C  0.41997743  0.73954745  0.75833719    -0.40300
H1691       H  0.39332816  0.80797271  0.71677443     0.12500
H1692       H  0.36720842  0.84794206  0.73376239     0.12100
H1693       H  0.36548383  0.81118562  0.81599871     0.11500
H1694       H  0.39123311  0.77083893  0.79883325     0.11800
H1695       H  0.33969962  0.85412841  0.80904943     0.14500
H1696       H  0.35147248  0.88545112  0.75439235     0.13300
H1697       H  0.41363939  0.76281042  0.72180826     0.11000
H1698       H  0.41737641  0.73776877  0.78065495     0.13000
C1699       C  0.24953785  0.83636429  0.90691091     0.19100
C1700       C  0.26631480  0.81882402  0.92345938    -0.19000
C1701       C  0.25425941  0.79757261  0.93970683    -0.11300
C1702       C  0.22500339  0.79356819  0.93987084     0.21300
C1703       C  0.20827675  0.81132856  0.92355564    -0.20600
C1704       C  0.22029040  0.83244475  0.90731874    -0.11500
C1705       C  0.21079413  0.77296669  0.95842145    -0.15600
C1706       C  0.22357498  0.75101532  0.97072320    -0.29500
C1707       C  0.26277624  0.85952895  0.89069282    -0.03800
C1708       C  0.25068131  0.87055990  0.86787602    -0.40300
H1709       H  0.28881678  0.82170257  0.92396282     0.12500
H1710       H  0.26789864  0.78502803  0.95267072     0.12100
H1711       H  0.18567804  0.80916076  0.92370881     0.11500
H1712       H  0.20641545  0.84617162  0.89585620     0.11800
H1713       H  0.18873766  0.77662362  0.96275968     0.14500
H1714       H  0.24536617  0.74635534  0.96633343     0.13300
H1715       H  0.28273075  0.86780373  0.89782302     0.11000
H1716       H  0.23139577  0.86154465  0.85996283     0.13000
C1717       C  0.24381111  0.64173300  0.39583461     0.19100
C1718       C  0.23899668  0.66997771  0.38893476    -0.19000
C1719       C  0.23114741  0.68935014  0.40950586    -0.11300
C1720       C  0.22715807  0.68047004  0.43710805     0.21300
C1721       C  0.23179885  0.65223192  0.44389436    -0.20600
C1722       C  0.24035453  0.63312680  0.42359996    -0.11500
C1723       C  0.21532173  0.69913877  0.45873069    -0.15600
C1724       C  0.22260759  0.72618325  0.46251131    -0.29500
C1725       C  0.25049731  0.62095670  0.37376655    -0.03800
C1726       C  0.26863761  0.59981984  0.37819647    -0.40300
H1727       H  0.24117143  0.67698286  0.36760380     0.12500
H1728       H  0.22706981  0.71090017  0.40365296     0.12100
H1729       H  0.22842726  0.64485231  0.46496278     0.11500
H1730       H  0.24320058  0.61137197  0.42944642     0.11800
H1731       H  0.20112640  0.68941139  0.47357175     0.14500
H1732       H  0.23885659  0.73571210  0.44984959     0.13300
H1733       H  0.24022832  0.62300474  0.35367734     0.11000
H1734       H  0.28036967  0.59910934  0.39757839     0.13000
C1735       C  0.21268167  0.93906085  0.42211292     0.19100
C1736       C  0.18636384  0.93122111  0.43260614    -0.19000
C1737       C  0.18317229  0.90652255  0.44802565    -0.11300
C1738       C  0.20641942  0.88923161  0.45350440     0.21300
C1739       C  0.23274327  0.89718003  0.44320159    -0.20600
C1740       C  0.23595362  0.92189850  0.42788999    -0.11500
C1741       C  0.20418238  0.86258440  0.46940919    -0.15600
C1742       C  0.18390976  0.85725399  0.48813553    -0.29500
C1743       C  0.21481045  0.96499496  0.40500610    -0.03800
C1744       C  0.23552968  0.96977082  0.38657960    -0.40300
H1745       H  0.16806982  0.94400529  0.42841594     0.12500
H1746       H  0.16241898  0.90083265  0.45504733     0.12100
H1747       H  0.25100152  0.88431048  0.44723948     0.11500
H1748       H  0.25673963  0.92748496  0.42091745     0.11800
H1749       H  0.22097096  0.84741530  0.46681638     0.14500
H1750       H  0.16789244  0.87277669  0.49246622     0.13300
H1751       H  0.19741375  0.97967502  0.40598772     0.11000
H1752       H  0.25215154  0.95455711  0.38371870     0.13000
C1753       C  0.04700298  0.78076662  0.39286403     0.19100
C1754       C  0.05968991  0.75580326  0.40195245    -0.19000
C1755       C  0.07562506  0.75529521  0.42644581    -0.11300
C1756       C  0.07925299  0.77992826  0.44215866     0.21300
C1757       C  0.06704093  0.80492110  0.43268617    -0.20600
C1758       C  0.05116564  0.80541538  0.40835365    -0.11500
C1759       C  0.09708998  0.78134971  0.46738113    -0.15600
C1760       C  0.10537363  0.75915950  0.48268482    -0.29500
C1761       C  0.03003478  0.78068822  0.36695064    -0.03800
C1762       C  0.00932252  0.79927154  0.36234528    -0.40300
H1763       H  0.05716789  0.73663638  0.39012408     0.12500
H1764       H  0.08545293  0.73580918  0.43256124     0.12100
H1765       H  0.06998882  0.82430167  0.44407123     0.11500
H1766       H  0.04273620  0.82531683  0.40152077     0.11800
H1767       H  0.10394641  0.80216782  0.47356905     0.14500
H1768       H  0.09851938  0.73809848  0.47763762     0.13300
H1769       H  0.03379179  0.76412157  0.35188917     0.11000
H1770       H  0.00397931  0.81467296  0.37806479     0.13000
C1771       C  0.20350435  0.84911178  0.65448788     0.19100
C1772       C  0.18513749  0.86143859  0.67378348    -0.19000
C1773       C  0.19551068  0.87458165  0.69780038    -0.11300
C1774       C  0.22452289  0.87518815  0.70302848     0.21300
C1775       C  0.24263601  0.86197920  0.68412076    -0.20600
C1776       C  0.23233817  0.84905617  0.66024418    -0.11500
C1777       C  0.23756962  0.88994194  0.72697863    -0.15600
C1778       C  0.22421777  0.90443824  0.74714716    -0.29500
C1779       C  0.19220068  0.83564051  0.62898189    -0.03800
C1780       C  0.20716519  0.83345354  0.60529669    -0.40300
H1781       H  0.16276007  0.86133153  0.66999894     0.12500
H1782       H  0.18080393  0.88436558  0.71184785     0.12100
H1783       H  0.26505392  0.86180861  0.68769580     0.11500
H1784       H  0.24707332  0.83876743  0.64654010     0.11800
H1785       H  0.26034228  0.88947578  0.72740233     0.14500
H1786       H  0.20155031  0.90527187  0.74818679     0.13300
H1787       H  0.17090624  0.82763037  0.62963938     0.11000
H1788       H  0.22783146  0.84280087  0.60386761     0.13000
C1789       C  0.34435644  0.69948452  0.63071459     0.19100
C1790       C  0.32369181  0.68195340  0.61945013    -0.19000
C1791       C  0.30047150  0.69328758  0.60575407    -0.11300
C1792       C  0.29737688  0.72256329  0.60333166     0.21300
C1793       C  0.31778919  0.74003442  0.61525195    -0.20600
C1794       C  0.34098633  0.72869625  0.62885473    -0.11500
C1795       C  0.27361651  0.73609957  0.58856096    -0.15600
C1796       C  0.25309609  0.72242089  0.57490938    -0.29500
C1797       C  0.36860965  0.68665249  0.64508437    -0.03800
C1798       C  0.39359829  0.69944884  0.64743273    -0.40300
H1799       H  0.32568000  0.65936875  0.62100140     0.12500
H1800       H  0.28525843  0.67890024  0.59724529     0.12100
H1801       H  0.31582061  0.76264577  0.61402442     0.11500
H1802       H  0.35593044  0.74290042  0.63822077     0.11800
H1803       H  0.27340278  0.75891694  0.58846620     0.14500
H1804       H  0.25232850  0.69973027  0.57420382     0.13300
H1805       H  0.36593337  0.66563944  0.65346689     0.11000
H1806       H  0.39712549  0.71984805  0.63804469     0.13000
C1807       C  0.05896500  0.70834543  0.68600056     0.19100
C1808       C  0.07348685  0.69153002  0.66687205    -0.19000
C1809       C  0.08875165  0.70353650  0.64514215    -0.11300
C1810       C  0.08995138  0.73284700  0.64198531     0.21300
C1811       C  0.07536667  0.74975209  0.66099252    -0.20600
C1812       C  0.06009892  0.73770841  0.68286139    -0.11500
C1813       C  0.10503924  0.74616481  0.61831438    -0.15600
C1814       C  0.12704896  0.73396212  0.60573301    -0.29500
C1815       C  0.04091718  0.69409297  0.70695399    -0.03800
C1816       C  0.02841435  0.70672375  0.72877170    -0.40300
H1817       H  0.07256267  0.66887126  0.66839202     0.12500
H1818       H  0.09880381  0.68969609  0.63039382     0.12100
H1819       H  0.07562093  0.77235963  0.65878582     0.11500
H1820       H  0.04863066  0.75149023  0.69656899     0.11800
H1821       H  0.09815050  0.76675751  0.61139407     0.14500
H1822       H  0.13522491  0.71424246  0.61361979     0.13300
H1823       H  0.03656159  0.67203419  0.70325193     0.11000
H1824       H  0.03248844  0.72855925  0.73349797     0.13000
loop_ 
_geom_bond_atom_site_label_1 
_geom_bond_atom_site_label_2 
_geom_bond_distance 
_geom_bond_site_symmetry_2 
_ccdc_geom_bond_type 
O1          Cr19   2.020       .  S
O1            C9   1.270       .  A
O2          Cr19   1.960       .  S
O2            C3   1.258       .  A
C3            O4   1.266       .  A
C3         C1796   1.474       .  S
O4          Cr20   2.013       .  S
O5          Cr20   1.969       .  S
O5            C6   1.255       .  A
C6            O7   1.266       .  A
C6         C1814   1.476       .  S
O7          Cr21   2.017       .  S
O8          Cr21   1.969       .  S
O8            C9   1.260       .  A
C9         C1780   1.474       .  S
O10         Cr19   1.973       .  S
O10          C18   1.259       .  A
O11         Cr19   2.027       .  S
O11          C12   1.268       .  A
C12          O13   1.257       .  A
C12        C1724   1.480       .  S
O13         Cr20   1.960       .  S
O14         Cr20   2.019       .  S
O14          C15   1.269       .  A
C15          O16   1.260       .  A
C15        C1760   1.477       .  S
O16         Cr21   1.958       .  S
O17         Cr21   2.014       .  S
O17          C18   1.265       .  A
C18        C1742   1.477       .  S
Cr19         O22   1.769       .  S
Cr20         O22   1.771       .  S
Cr21         O22   1.773       .  S
O23         Cr41   2.026       .  S
O23          C31   1.269       .  A
O24         Cr41   1.949       .  S
O24          C25   1.258       .  A
C25          O26   1.272       .  A
C25        C1778   1.483       .  S
O26         Cr42   2.037       .  S
O27         Cr42   1.965       .  S
O27          C28   1.255       .  A
C28          O29   1.268       .  A
C28        C1708   1.477       .  S
O29         Cr43   2.026       .  S
O30         Cr43   1.965       .  S
O30          C31   1.258       .  A
C31        C1688   1.479       .  S
O32         Cr41   1.968       .  S
O32          C40   1.259       .  A
O33         Cr41   2.031       .  S
O33          C34   1.267       .  A
C34          O35   1.254       .  A
C34        C1636   1.480   1_565  S
O35         Cr42   1.967       .  S
O36         Cr42   2.030       .  S
O36          C37   1.273       .  A
C37          O38   1.257       .  A
C37        C1654   1.471       .  S
O38         Cr43   1.952       .  S
O39         Cr43   2.035       .  S
O39          C40   1.272       .  A
C40        C1672   1.475   1_565  S
Cr41         O44   1.767       .  S
Cr42         O44   1.767       .  S
Cr43         O44   1.772       .  S
O45         Cr63   2.015       .  S
O45          C53   1.268       .  A
O46         Cr63   1.959       .  S
O46          C47   1.257       .  A
C47          O48   1.268       .  A
C47        C1690   1.481       .  S
O48         Cr64   2.023       .  S
O49         Cr64   1.976       .  S
O49          C50   1.255       .  A
C50          O51   1.264       .  A
C50        C1582   1.482       .  S
O51         Cr65   2.019       .  S
O52         Cr65   1.965       .  S
O52          C53   1.261       .  A
C53        C1798   1.470       .  S
O54         Cr63   1.977       .  S
O54          C62   1.260       .  A
O55         Cr63   2.021       .  S
O55          C56   1.267       .  A
C56          O57   1.257       .  A
C56        C1562   1.482       .  S
O57         Cr64   1.964       .  S
O58         Cr64   2.030       .  S
O58          C59   1.273       .  A
C59          O60   1.260       .  A
C59        C1598   1.484       .  S
O60         Cr65   1.957       .  S
O61         Cr65   2.011       .  S
O61          C62   1.265       .  A
C62        C1616   1.475       .  S
Cr63         O66   1.775       .  S
Cr64         O66   1.772       .  S
Cr65         O66   1.775       .  S
O67         Cr85   2.010       .  S
O67          C75   1.265       .  A
O68         Cr85   1.964       .  S
O68          C69   1.260       .  A
C69          O70   1.270       .  A
C69        C1526   1.481       .  S
O70         Cr86   2.028       .  S
O71         Cr86   1.961       .  S
O71          C72   1.255       .  A
C72          O73   1.271       .  A
C72        C1544   1.479       .  S
O73         Cr87   2.034       .  S
O74         Cr87   1.986       .  S
O74          C75   1.260       .  A
C75        C1508   1.479       .  S
O76         Cr85   1.962       .  S
O76          C84   1.258       .  A
O77         Cr85   2.018       .  S
O77          C78   1.264       .  A
C78          O79   1.259       .  A
C78        C1454   1.480       .  S
O79         Cr86   1.970       .  S
O80         Cr86   2.024       .  S
O80          C81   1.270       .  A
C81          O82   1.261       .  A
C81        C1472   1.489       .  S
O82         Cr87   1.976       .  S
O83         Cr87   2.037       .  S
O83          C84   1.274       .  A
C84        C1490   1.478       .  S
Cr85         O88   1.769       .  S
Cr86         O88   1.768       .  S
Cr87         O88   1.777       .  S
O89        Cr107   2.019       .  S
O89          C97   1.269       .  A
O90        Cr107   1.957       .  S
O90          C91   1.258       .  A
C91          O92   1.271       .  A
C91        C1400   1.484       .  S
O92        Cr108   2.031       .  S
O93        Cr108   1.975       .  S
O93          C94   1.257       .  A
C94          O95   1.266       .  A
C94        C1418   1.479       .  S
O95        Cr109   2.013       .  S
O96        Cr109   1.972       .  S
O96          C97   1.261       .  A
C97        C1528   1.475       .  S
O98        Cr107   1.979       .  S
O98         C106   1.262       .  A
O99        Cr107   2.033       .  S
O99         C100   1.268       .  A
C100        O101   1.253       .  A
C100       C1382   1.476       .  S
O101       Cr108   1.963       .  S
O102       Cr108   2.026       .  S
O102        C103   1.270       .  A
C103        O104   1.259       .  A
C103       C1618   1.482       .  S
O104       Cr109   1.960       .  S
O105       Cr109   2.009       .  S
O105        C106   1.265       .  A
C106       C1436   1.475       .  S
Cr107       O110   1.771       .  S
Cr108       O110   1.769       .  S
Cr109       O110   1.770       .  S
O111       Cr129   2.019       .  S
O111        C119   1.269       .  A
O112       Cr129   1.960       .  S
O112        C113   1.258       .  A
C113        O114   1.270       .  A
C113       C1510   1.486       .  S
O114       Cr130   2.033       .  S
O115       Cr130   1.964       .  S
O115        C116   1.254       .  A
C116        O117   1.267       .  A
C116       C1364   1.475       .  S
O117       Cr131   2.021       .  S
O118       Cr131   1.976       .  S
O118        C119   1.262       .  A
C119       C1402   1.478       .  S
O120       Cr129   1.973       .  S
O120        C128   1.260       .  A
O121       Cr129   2.026       .  S
O121        C122   1.267   1_655  A
C122        O123   1.255       .  A
C122       C1328   1.479       .  S
O123       Cr130   1.957   1_455  S
O124       Cr130   2.032       .  S
O124        C125   1.272       .  A
C125        O126   1.260       .  A
C125       C1346   1.488   1_655  S
O126       Cr131   1.968       .  S
O127       Cr131   2.009       .  S
O127        C128   1.265       .  A
C128       C1762   1.471   1_655  S
Cr129       O132   1.770       .  S
Cr130       O132   1.768       .  S
Cr131       O132   1.773       .  S
O133       Cr151   2.023       .  S
O133        C141   1.269       .  A
O134       Cr151   1.953       .  S
O134        C135   1.258       .  A
C135        O136   1.271       .  A
C135       C1292   1.479       .  S
O136       Cr152   2.032       .  S
O137       Cr152   1.960       .  S
O137        C138   1.254       .  A
C138        O139   1.268       .  A
C138       C1310   1.471       .  S
O139       Cr153   2.023       .  S
O140       Cr153   1.975       .  S
O140        C141   1.260       .  A
C141       C1274   1.481       .  S
O142       Cr151   1.966       .  S
O142        C150   1.257       .  A
O143       Cr151   2.020       .  S
O143        C144   1.267       .  A
C144        O145   1.255       .  A
C144       C1238   1.473       .  S
O145       Cr152   1.967       .  S
O146       Cr152   2.029       .  S
O146        C147   1.271       .  A
C147        O148   1.260       .  A
C147       C1670   1.482       .  S
O148       Cr153   1.966       .  S
O149       Cr153   2.027       .  S
O149        C150   1.270       .  A
C150       C1258   1.471       .  S
Cr151       O154   1.761       .  S
Cr152       O154   1.764       .  S
Cr153       O154   1.767       .  S
O155       Cr173   2.009       .  S
O155        C163   1.264       .  A
O156       Cr173   1.965       .  S
O156        C157   1.260       .  A
C157        O158   1.273       .  A
C157       C1276   1.486       .  S
O158       Cr174   2.032       .  S
O159       Cr174   1.975       .  S
O159        C160   1.255       .  A
C160        O161   1.265       .  A
C160       C1220   1.485       .  S
O161       Cr175   2.022       .  S
O162       Cr175   1.974       .  S
O162        C163   1.259       .  A
C163       C1202   1.471       .  S
O164       Cr173   1.986       .  S
O164        C172   1.264       .  A
O165       Cr173   2.016       .  S
O165        C166   1.264       .  A
C166        O167   1.257       .  A
C166       C1166   1.485   1_556  S
O167       Cr174   1.974       .  S
O168       Cr174   2.034       .  S
O168        C169   1.274       .  A
C169        O170   1.260       .  A
C169       C1184   1.487       .  S
O170       Cr175   1.957       .  S
O171       Cr175   2.021       .  S
O171        C172   1.270       .  A
C172       C1474   1.484   1_556  S
Cr173       O176   1.777       .  S
Cr174       O176   1.774       .  S
Cr175       O176   1.777       .  S
O177       Cr195   2.012       .  S
O177        C185   1.267       .  A
O178       Cr195   1.962       .  S
O178        C179   1.259       .  A
C179        O180   1.267       .  A
C179       C1204   1.476       .  S
O180       Cr196   2.017       .  S
O181       Cr196   1.973       .  S
O181        C182   1.256       .  A
C182        O183   1.266       .  A
C182       C1150   1.479       .  S
O183       Cr197   2.017       .  S
O184       Cr197   1.971       .  S
O184        C185   1.260       .  A
C185       C1294   1.471       .  S
O186       Cr195   1.981       .  S
O186        C194   1.262       .  A
O187       Cr195   2.020       .  S
O187        C188   1.266       .  A
C188        O189   1.258       .  A
C188       C1130   1.483       .  S
O189       Cr196   1.970       .  S
O190       Cr196   2.019       .  S
O190        C191   1.269       .  A
C191        O192   1.260       .  A
C191       C1438   1.479       .  S
O192       Cr197   1.966       .  S
O193       Cr197   2.011       .  S
O193        C194   1.266       .  A
C194       C1600   1.477       .  S
Cr195       O198   1.773       .  S
Cr196       O198   1.773       .  S
Cr197       O198   1.773       .  S
O199       Cr217   2.018       .  S
O199        C207   1.268       .  A
O200       Cr217   1.953       .  S
O200        C201   1.255       .  A
C201        O202   1.268       .  A
C201       C1076   1.479       .  S
O202       Cr218   2.030       .  S
O203       Cr218   1.987       .  S
O203        C204   1.261       .  A
C204        O205   1.263       .  A
C204       C1112   1.478       .  S
O205       Cr219   2.009       .  S
O206       Cr219   1.967       .  S
O206        C207   1.259       .  A
C207       C1096   1.472       .  S
O208       Cr217   1.972   1_556  S
O208        C216   1.256       .  A
O209       Cr217   2.013       .  S
O209        C210   1.267   1_554  A
C210        O211   1.261   1_556  A
C210       C1058   1.478       .  S
O211       Cr218   1.974       .  S
O212       Cr218   2.032       .  S
O212        C213   1.273   1_554  A
C213        O214   1.262   1_556  A
C213       C1256   1.478       .  S
O214       Cr219   1.963       .  S
O215       Cr219   2.023       .  S
O215        C216   1.267   1_554  A
C216       C1652   1.476       .  S
Cr217       O220   1.760       .  S
Cr218       O220   1.770       .  S
Cr219       O220   1.766       .  S
O221       Cr239   1.975       .  S
O221        C229   1.260       .  A
O222       Cr239   1.990       .  S
O222        C223   1.263       .  A
C223        O224   1.265       .  A
C223       C1022   1.488       .  S
O224       Cr240   2.007       .  S
O225       Cr240   2.020       .  S
O225        C226   1.266       .  A
C226        O227   1.257       .  A
C226       C1042   1.486       .  S
O227       Cr241   1.980       .  S
O228       Cr241   2.002       .  S
O228        C229   1.266       .  A
C229       C1078   1.472       .  S
O230       Cr239   1.999       .  S
O230        C238   1.261       .  A
O231       Cr239   1.987   1_655  S
O231        C232   1.263       .  A
C232        O233   1.270   1_655  A
C232       C1004   1.486       .  S
O233       Cr240   2.014       .  S
O234       Cr240   1.991       .  S
O234        C235   1.265       .  A
C235        O236   1.265       .  A
C235       C1492   1.479   1_455  S
O236       Cr241   2.003       .  S
O237       Cr241   1.991       .  S
O237        C238   1.262       .  A
C238       C1186   1.481   1_455  S
Cr239       O242   1.773       .  S
Cr240       O242   1.776       .  S
Cr241       O242   1.775       .  S
O243       Cr261   1.977       .  S
O243        C251   1.261       .  A
O244       Cr261   1.995       .  S
O244        C245   1.268       .  A
C245        O246   1.266       .  A
C245       C1094   1.481       .  S
O246       Cr262   1.994       .  S
O247       Cr262   1.996       .  S
O247        C248   1.258       .  A
C248        O249   1.258       .  A
C248        C986   1.480       .  S
O249       Cr263   1.995       .  S
O250       Cr263   2.001       .  S
O250        C251   1.266       .  A
C251       C1024   1.474       .  S
O252       Cr261   1.999       .  S
O252        C260   1.262   1_545  A
O253       Cr261   2.006   1_565  S
O253        C254   1.263       .  A
C254        O255   1.261       .  A
C254        C968   1.485       .  S
O255       Cr262   1.994   1_565  S
O256       Cr262   1.974   1_565  S
O256        C257   1.263       .  A
C257        O258   1.271   1_565  A
C257       C1744   1.475       .  S
O258       Cr263   2.010       .  S
O259       Cr263   1.990       .  S
O259        C260   1.260   1_545  A
C260       C1348   1.486       .  S
Cr261       O264   1.775       .  S
Cr262       O264   1.778       .  S
Cr263       O264   1.780       .  S
O265       Cr283   1.964       .  S
O265        C273   1.262       .  A
O266       Cr283   2.017       .  S
O266        C267   1.268       .  A
C267        O268   1.259       .  A
C267        C898   1.480   1_455  S
O268       Cr284   1.979       .  S
O269       Cr284   2.021       .  S
O269        C270   1.268       .  A
C270        O271   1.261       .  A
C270       C1222   1.488   1_455  S
O271       Cr285   1.980       .  S
O272       Cr285   2.029       .  S
O272        C273   1.272       .  A
C273        C914   1.474   1_455  S
O274       Cr283   2.010       .  S
O274        C282   1.264       .  A
O275       Cr283   1.975       .  S
O275        C276   1.260       .  A
C276        O277   1.268       .  A
C276        C952   1.474       .  S
O277       Cr284   2.015       .  S
O278       Cr284   1.958       .  S
O278        C279   1.254       .  A
C279        O280   1.269       .  A
C279        C932   1.468       .  S
O280       Cr285   2.031       .  S
O281       Cr285   1.990       .  S
O281        C282   1.261       .  A
C282       C1634   1.483       .  S
Cr283       O286   1.769       .  S
Cr284       O286   1.764       .  S
Cr285       O286   1.772       .  S
O287       Cr305   1.964       .  S
O287        C295   1.259       .  A
O288       Cr305   2.010       .  S
O288        C289   1.265       .  A
C289        O290   1.260       .  A
C289        C860   1.476       .  S
O290       Cr306   1.978       .  S
O291       Cr306   2.034       .  S
O291        C292   1.271       .  A
C292        O293   1.259       .  A
C292       C1580   1.487       .  S
O293       Cr307   1.966       .  S
O294       Cr307   2.016       .  S
O294        C295   1.266       .  A
C295        C842   1.475       .  S
O296       Cr305   2.016       .  S
O296        C304   1.267       .  A
O297       Cr305   1.964       .  S
O297        C298   1.258       .  A
C298        O299   1.272       .  A
C298        C934   1.477       .  S
O299       Cr306   2.028       .  S
O300       Cr306   1.963       .  S
O300        C301   1.258       .  A
C301        O302   1.265       .  A
C301        C880   1.474       .  S
O302       Cr307   2.014       .  S
O303       Cr307   1.971       .  S
O303        C304   1.257       .  A
C304       C1060   1.476       .  S
Cr305       O308   1.768       .  S
Cr306       O308   1.769       .  S
Cr307       O308   1.771       .  S
O309       Cr327   1.951       .  S
O309        C317   1.258       .  A
O310       Cr327   2.004       .  S
O310        C311   1.264       .  A
C311        O312   1.261       .  A
C311        C806   1.470       .  S
O312       Cr328   1.977       .  S
O313       Cr328   2.009       .  S
O313        C314   1.264       .  A
C314        O315   1.260       .  A
C314        C988   1.481       .  S
O315       Cr329   1.978       .  S
O316       Cr329   2.039       .  S
O316        C317   1.276       .  A
C317        C824   1.476       .  S
O318       Cr327   1.995       .  S
O318        C326   1.261       .  A
O319       Cr327   1.967       .  S
O319        C320   1.258       .  A
C320        O321   1.266       .  A
C320        C878   1.471       .  S
O321       Cr328   2.014       .  S
O322       Cr328   1.955       .  S
O322        C323   1.259       .  A
C323        O324   1.271       .  A
C323        C950   1.483       .  S
O324       Cr329   2.032       .  S
O325       Cr329   1.983       .  S
O325        C326   1.256       .  A
C326       C1240   1.478       .  S
Cr327       O330   1.772       .  S
Cr328       O330   1.770       .  S
Cr329       O330   1.775       .  S
O331       Cr349   1.971   1_565  S
O331        C339   1.261       .  A
O332       Cr349   2.035       .  S
O332        C333   1.270   1_545  A
C333        O334   1.255       .  A
C333        C736   1.473       .  S
O334       Cr350   1.966   1_565  S
O335       Cr350   2.010   1_565  S
O335        C336   1.264       .  A
C336        O337   1.259       .  A
C336       C1366   1.477       .  S
O337       Cr351   1.975   1_565  S
O338       Cr351   2.028       .  S
O338        C339   1.271   1_545  A
C339        C754   1.482       .  S
O340       Cr349   2.031       .  S
O340        C348   1.270       .  A
O341       Cr349   1.977       .  S
O341        C342   1.260       .  A
C342        O343   1.268       .  A
C342        C790   1.478       .  S
O343       Cr350   2.018       .  S
O344       Cr350   1.960       .  S
O344        C345   1.260       .  A
C345        O346   1.270       .  A
C345        C770   1.482       .  S
O346       Cr351   2.030       .  S
O347       Cr351   1.966       .  S
O347        C348   1.257       .  A
C348       C1168   1.481       .  S
Cr349       O352   1.775       .  S
Cr350       O352   1.764       .  S
Cr351       O352   1.770       .  S
O353       Cr371   2.010       .  S
O353        C361   1.272       .  A
O354       Cr371   1.987       .  S
O354        C355   1.260       .  A
C355        O356   1.262       .  A
C355        C698   1.483       .  S
O356       Cr372   1.996       .  S
O357       Cr372   2.004       .  S
O357        C358   1.262       .  A
C358        O359   1.260       .  A
C358       C1148   1.484       .  S
O359       Cr373   1.988       .  S
O360       Cr373   1.985       .  S
O360        C361   1.266       .  A
C361        C896   1.482       .  S
O362       Cr371   2.000       .  S
O362        C370   1.258       .  A
O363       Cr371   2.002       .  S
O363        C364   1.266       .  A
C364        O365   1.261       .  A
C364        C772   1.476       .  S
O365       Cr372   1.976       .  S
O366       Cr372   1.993       .  S
O366        C367   1.267       .  A
C367        O368   1.268       .  A
C367        C718   1.482       .  S
O368       Cr373   2.001       .  S
O369       Cr373   1.988       .  S
O369        C370   1.256       .  A
C370       C1006   1.477       .  S
Cr371       O374   1.780       .  S
Cr372       O374   1.779       .  S
Cr373       O374   1.776       .  S
O375       Cr393   1.968       .  S
O375        C383   1.258       .  A
O376       Cr393   2.030       .  S
O376        C377   1.269       .  A
C377        O378   1.255       .  A
C377        C826   1.479       .  S
O378       Cr394   1.965       .  S
O379       Cr394   2.039       .  S
O379        C380   1.273       .  A
C380        O381   1.256       .  A
C380       C1114   1.475       .  S
O381       Cr395   1.958       .  S
O382       Cr395   2.029       .  S
O382        C383   1.269       .  A
C383        C680   1.479       .  S
O384       Cr393   2.033       .  S
O384        C392   1.272       .  A
O385       Cr393   1.950       .  S
O385        C386   1.254       .  A
C386        O387   1.273       .  A
C386        C716   1.472       .  S
O387       Cr394   2.030       .  S
O388       Cr394   1.954       .  S
O388        C389   1.254       .  A
C389        O390   1.269       .  A
C389        C788   1.487       .  S
O390       Cr395   2.039       .  S
O391       Cr395   1.957       .  S
O391        C392   1.257       .  A
C392       C1456   1.473       .  S
Cr393       O396   1.770       .  S
Cr394       O396   1.763       .  S
Cr395       O396   1.766       .  S
O397       Cr415   1.963       .  S
O397        C405   1.261       .  A
O398       Cr415   2.004       .  S
O398        C399   1.263       .  A
C399        O400   1.259       .  A
C399        C844   1.469   1_554  S
O400       Cr416   1.975       .  S
O401       Cr416   2.013       .  S
O401        C402   1.266   1_554  A
C402        O403   1.260       .  A
C402       C1706   1.480       .  S
O403       Cr417   1.973   1_556  S
O404       Cr417   2.034       .  S
O404        C405   1.274       .  A
C405        C628   1.485   1_554  S
O406       Cr415   2.004       .  S
O406        C414   1.260       .  A
O407       Cr415   1.980       .  S
O407        C408   1.262       .  A
C408        O409   1.268       .  A
C408        C664   1.474       .  S
O409       Cr416   2.013       .  S
O410       Cr416   1.959       .  S
O410        C411   1.258       .  A
C411        O412   1.268       .  A
C411        C644   1.479       .  S
O412       Cr417   2.022       .  S
O413       Cr417   1.986       .  S
O413        C414   1.258       .  A
C414       C1330   1.471       .  S
Cr415       O418   1.771       .  S
Cr416       O418   1.767       .  S
Cr417       O418   1.770       .  S
O419       Cr437   1.956       .  S
O419        C427   1.259       .  A
O420       Cr437   2.031       .  S
O420        C421   1.270       .  A
C421        O422   1.256       .  A
C421        C590   1.472       .  S
O422       Cr438   1.966       .  S
O423       Cr438   2.011       .  S
O423        C424   1.265       .  A
C424        O425   1.259       .  A
C424       C1420   1.480       .  S
O425       Cr439   1.979       .  S
O426       Cr439   2.037       .  S
O426        C427   1.273       .  A
C427        C734   1.484       .  S
O428       Cr437   2.022       .  S
O428        C436   1.268       .  A
O429       Cr437   1.964       .  S
O429        C430   1.258       .  A
C430        O431   1.267       .  A
C430        C646   1.474       .  S
O431       Cr438   2.018       .  S
O432       Cr438   1.952       .  S
O432        C433   1.258       .  A
C433        O434   1.272       .  A
C433        C608   1.481       .  S
O434       Cr439   2.035       .  S
O435       Cr439   1.975       .  S
O435        C436   1.257       .  A
C436        C970   1.484       .  S
Cr437       O440   1.770       .  S
Cr438       O440   1.764       .  S
Cr439       O440   1.771       .  S
O441       Cr459   1.956       .  S
O441        C449   1.261       .  A
O442       Cr459   2.021       .  S
O442        C443   1.266       .  A
C443        O444   1.256       .  A
C443        C682   1.476       .  S
O444       Cr460   1.975       .  S
O445       Cr460   2.034       .  S
O445        C446   1.270       .  A
C446        O447   1.256       .  A
C446       C1040   1.482       .  S
O447       Cr461   1.967       .  S
O448       Cr461   2.025       .  S
O448        C449   1.272       .  A
C449        C808   1.474       .  S
O450       Cr459   2.012       .  S
O450        C458   1.264       .  A
O451       Cr459   1.959       .  S
O451        C452   1.260       .  A
C452        O453   1.273       .  A
C452        C610   1.478       .  S
O453       Cr460   2.031       .  S
O454       Cr460   1.951       .  S
O454        C455   1.256       .  A
C455        O456   1.269       .  A
C455        C662   1.482       .  S
O456       Cr461   2.029       .  S
O457       Cr461   1.987       .  S
O457        C458   1.260       .  A
C458       C1726   1.478       .  S
Cr459       O462   1.770       .  S
Cr460       O462   1.766       .  S
Cr461       O462   1.768       .  S
O463       Cr481   1.964       .  S
O463        C471   1.262       .  A
O464       Cr481   2.023       .  S
O464        C465   1.267       .  A
C465        O466   1.258       .  A
C465        C752   1.477   1_556  S
O466       Cr482   1.978       .  S
O467       Cr482   2.008       .  S
O467        C468   1.264       .  A
C468        O469   1.263       .  A
C468       C1546   1.483   1_556  S
O469       Cr483   1.985       .  S
O470       Cr483   2.035       .  S
O470        C471   1.274       .  A
C471        C592   1.481   1_556  S
O472       Cr481   2.009       .  S
O472        C480   1.262       .  A
O473       Cr481   1.979       .  S
O473        C474   1.261       .  A
C474        O475   1.268       .  A
C474        C554   1.477       .  S
O475       Cr482   2.016       .  S
O476       Cr482   1.958       .  S
O476        C477   1.259       .  A
C477        O478   1.269       .  A
C477        C572   1.481       .  S
O478       Cr483   2.026       .  S
O479       Cr483   1.988       .  S
O479        C480   1.259       .  A
C480       C1564   1.476       .  S
Cr481       O484   1.772       .  S
Cr482       O484   1.763       .  S
Cr483       O484   1.772       .  S
O485       Cr503   1.970       .  S
O485        C493   1.262       .  A
O486       Cr503   2.011       .  S
O486        C487   1.265       .  A
C487        O488   1.257       .  A
C487        C916   1.473   1_565  S
O488       Cr504   1.978       .  S
O489       Cr504   1.999       .  S
O489        C490   1.262       .  A
C490        O491   1.261       .  A
C490       C1312   1.474       .  S
O491       Cr505   1.980       .  S
O492       Cr505   2.030       .  S
O492        C493   1.273       .  A
C493        C700   1.485       .  S
O494       Cr503   2.005       .  S
O494        C502   1.262       .  A
O495       Cr503   1.972       .  S
O495        C496   1.260       .  A
C496        O497   1.266       .  A
C496        C536   1.471       .  S
O497       Cr504   2.010       .  S
O498       Cr504   1.968       .  S
O498        C499   1.260       .  A
C499        O500   1.269       .  A
C499        C556   1.483       .  S
O500       Cr505   2.024       .  S
O501       Cr505   1.989       .  S
O501        C502   1.260       .  A
C502       C1384   1.481       .  S
Cr503       O506   1.771       .  S
Cr504       O506   1.769       .  S
Cr505       O506   1.770       .  S
O507       Cr525   1.965       .  S
O507        C515   1.260       .  A
O508       Cr525   2.017       .  S
O508        C509   1.268       .  A
C509        O510   1.261       .  A
C509        C626   1.480   1_655  S
O510       Cr526   1.979       .  S
O511       Cr526   2.021       .  S
O511        C512   1.267   1_655  A
C512        O513   1.258       .  A
C512       C1816   1.481       .  S
O513       Cr527   1.966   1_455  S
O514       Cr527   2.021       .  S
O514        C515   1.269       .  A
C515        C862   1.481   1_655  S
O516       Cr525   2.020       .  S
O516        C524   1.267       .  A
O517       Cr525   1.974       .  S
O517        C518   1.259       .  A
C518        O519   1.267       .  A
C518        C574   1.473       .  S
O519       Cr526   2.013       .  S
O520       Cr526   1.961       .  S
O520        C521   1.258       .  A
C521        O522   1.268       .  A
C521        C538   1.477       .  S
O522       Cr527   2.021       .  S
O523       Cr527   1.969       .  S
O523        C524   1.256       .  A
C524       C1132   1.478       .  S
Cr525       O528   1.771       .  S
Cr526       O528   1.770       .  S
Cr527       O528   1.772       .  S
C529        C537   1.485       .  S
C529        C530   1.404       .  A
C529        C534   1.408       .  A
C530        C531   1.393       .  A
C530        H539   1.084       .  S
C531        C532   1.406       .  A
C531        H540   1.081       .  S
C532        C535   1.484       .  S
C532        C533   1.404       .  A
C533        C534   1.400       .  A
C533        H541   1.083       .  S
C534        H542   1.080       .  S
C535        H543   1.087       .  S
C535        C536   1.345       .  D
C536        H544   1.085       .  S
C537        H545   1.087       .  S
C537        C538   1.348       .  D
C538        H546   1.082       .  S
C547        C555   1.489       .  S
C547        C548   1.404       .  A
C547        C552   1.409       .  A
C548        C549   1.396       .  A
C548        H557   1.083       .  S
C549        C550   1.406       .  A
C549        H558   1.082       .  S
C550        C553   1.488       .  S
C550        C551   1.404       .  A
C551        C552   1.403       .  A
C551        H559   1.083       .  S
C552        H560   1.081       .  S
C553        H561   1.087       .  S
C553        C554   1.348       .  D
C554        H562   1.086       .  S
C555        H563   1.087       .  S
C555        C556   1.349       .  D
C556        H564   1.084       .  S
C565        C573   1.485       .  S
C565        C566   1.405       .  A
C565        C570   1.404       .  A
C566        C567   1.404       .  A
C566        H575   1.084       .  S
C567        C568   1.409       .  A
C567        H576   1.080       .  S
C568        C571   1.486       .  S
C568        C569   1.403       .  A
C569        C570   1.391       .  A
C569        H577   1.084       .  S
C570        H578   1.082       .  S
C571        H579   1.088       .  S
C571        C572   1.349       .  D
C572        H580   1.084       .  S
C573        H581   1.087       .  S
C573        C574   1.347       .  D
C574        H582   1.086       .  S
C583        C591   1.483       .  S
C583        C584   1.402       .  A
C583        C588   1.407       .  A
C584        C585   1.396       .  A
C584        H593   1.083       .  S
C585        C586   1.405       .  A
C585        H594   1.083       .  S
C586        C589   1.484       .  S
C586        C587   1.404       .  A
C587        C588   1.402       .  A
C587        H595   1.083       .  S
C588        H596   1.082       .  S
C589        H597   1.087       .  S
C589        C590   1.343       .  D
C590        H598   1.087       .  S
C591        H599   1.087       .  S
C591        C592   1.348       .  D
C592        H600   1.086       .  S
C601        C609   1.486       .  S
C601        C602   1.406       .  A
C601        C606   1.405       .  A
C602        C603   1.400       .  A
C602        H611   1.083       .  S
C603        C604   1.406       .  A
C603        H612   1.080       .  S
C604        C607   1.487       .  S
C604        C605   1.406       .  A
C605        C606   1.396       .  A
C605        H613   1.084       .  S
C606        H614   1.081       .  S
C607        H615   1.087       .  S
C607        C608   1.352       .  D
C608        H616   1.083       .  S
C609        H617   1.087       .  S
C609        C610   1.350       .  D
C610        H618   1.084       .  S
C619        C627   1.492       .  S
C619        C620   1.405       .  A
C619        C624   1.408       .  A
C620        C621   1.397       .  A
C620        H629   1.083       .  S
C621        C622   1.407       .  A
C621        H630   1.081       .  S
C622        C625   1.493       .  S
C622        C623   1.406       .  A
C623        C624   1.404       .  A
C623        H631   1.083       .  S
C624        H632   1.081       .  S
C625        H633   1.087       .  S
C625        C626   1.349       .  D
C626        H634   1.084       .  S
C627        H635   1.087       .  S
C627        C628   1.351       .  D
C628        H636   1.084       .  S
C637        C645   1.483       .  S
C637        C638   1.404       .  A
C637        C642   1.405       .  A
C638        C639   1.400       .  A
C638        H647   1.084       .  S
C639        C640   1.408       .  A
C639        H648   1.080       .  S
C640        C643   1.485       .  S
C640        C641   1.404       .  A
C641        C642   1.394       .  A
C641        H649   1.084       .  S
C642        H650   1.082       .  S
C643        H651   1.088       .  S
C643        C644   1.349       .  D
C644        H652   1.084       .  S
C645        H653   1.088       .  S
C645        C646   1.347       .  D
C646        H654   1.086       .  S
C655        C663   1.488       .  S
C655        C656   1.407       .  A
C655        C660   1.406       .  A
C656        C657   1.404       .  A
C656        H665   1.083       .  S
C657        C658   1.405       .  A
C657        H666   1.082       .  S
C658        C661   1.481       .  S
C658        C659   1.402       .  A
C659        C660   1.392       .  A
C659        H667   1.084       .  S
C660        H668   1.082       .  S
C661        H669   1.087       .  S
C661        C662   1.350       .  D
C662        H670   1.085       .  S
C663        H671   1.086       .  S
C663        C664   1.348       .  D
C664        H672   1.085       .  S
C673        C681   1.486       .  S
C673        C674   1.405       .  A
C673        C678   1.406       .  A
C674        C675   1.402       .  A
C674        H683   1.083       .  S
C675        C676   1.406       .  A
C675        H684   1.083       .  S
C676        C679   1.483       .  S
C676        C677   1.403       .  A
C677        C678   1.398       .  A
C677        H685   1.084       .  S
C678        H686   1.082       .  S
C679        H687   1.087       .  S
C679        C680   1.347       .  D
C680        H688   1.086       .  S
C681        H689   1.087       .  S
C681        C682   1.345       .  D
C682        H690   1.086       .  S
C691        C699   1.495       .  S
C691        C692   1.406       .  A
C691        C696   1.409       .  A
C692        C693   1.399       .  A
C692        H701   1.083       .  S
C693        C694   1.407       .  A
C693        H702   1.081       .  S
C694        C697   1.493       .  S
C694        C695   1.406       .  A
C695        C696   1.402       .  A
C695        H703   1.083       .  S
C696        H704   1.080       .  S
C697        H705   1.087       .  S
C697        C698   1.351       .  D
C698        H706   1.084       .  S
C699        H707   1.087       .  S
C699        C700   1.352   1_545  D
C700        H708   1.083       .  S
C709        C717   1.486       .  S
C709        C710   1.405       .  A
C709        C714   1.406       .  A
C710        C711   1.402       .  A
C710        H719   1.081       .  S
C711        C712   1.412       .  A
C711        H720   1.082       .  S
C712        C715   1.487       .  S
C712        C713   1.398       .  A
C713        C714   1.395       .  A
C713        H721   1.083       .  S
C714        H722   1.083       .  S
C715        H723   1.087       .  S
C715        C716   1.341       .  D
C716        H724   1.086       .  S
C717        H725   1.087       .  S
C717        C718   1.352       .  D
C718        H726   1.084       .  S
C727        C735   1.488       .  S
C727        C728   1.406       .  A
C727        C732   1.405       .  A
C728        C729   1.405       .  A
C728        H737   1.083       .  S
C729        C730   1.407       .  A
C729        H738   1.082       .  S
C730        C733   1.484       .  S
C730        C731   1.403       .  A
C731        C732   1.395       .  A
C731        H739   1.084       .  S
C732        H740   1.083       .  S
C733        H741   1.088       .  S
C733        C734   1.350       .  D
C734        H742   1.086       .  S
C735        H743   1.087       .  S
C735        C736   1.344       .  D
C736        H744   1.087       .  S
C745        C753   1.485       .  S
C745        C746   1.404       .  A
C745        C750   1.407       .  A
C746        C747   1.398       .  A
C746        H755   1.083       .  S
C747        C748   1.405       .  A
C747        H756   1.083       .  S
C748        C751   1.485       .  S
C748        C749   1.405       .  A
C749        C750   1.403       .  A
C749        H757   1.083   1_554  S
C750        H758   1.082       .  S
C751        H759   1.087   1_554  S
C751        C752   1.345       .  D
C752        H760   1.087       .  S
C753        H761   1.087       .  S
C753        C754   1.348       .  D
C754        H762   1.086       .  S
C763        C771   1.488       .  S
C763        C764   1.406       .  A
C763        C768   1.405       .  A
C764        C765   1.404       .  A
C764        H773   1.083       .  S
C765        C766   1.407       .  A
C765        H774   1.081       .  S
C766        C769   1.486       .  S
C766        C767   1.404       .  A
C767        C768   1.394       .  A
C767        H775   1.084       .  S
C768        H776   1.082       .  S
C769        H777   1.088       .  S
C769        C770   1.349       .  D
C770        H778   1.085       .  S
C771        H779   1.087       .  S
C771        C772   1.348       .  D
C772        H780   1.086       .  S
C781        C789   1.490       .  S
C781        C782   1.407       .  A
C781        C786   1.404       .  A
C782        C783   1.406       .  A
C782        H791   1.083       .  S
C783        C784   1.408       .  A
C783        H792   1.081       .  S
C784        C787   1.490       .  S
C784        C785   1.405       .  A
C785        C786   1.394       .  A
C785        H793   1.083       .  S
C786        H794   1.082       .  S
C787        H795   1.087       .  S
C787        C788   1.353       .  D
C788        H796   1.083       .  S
C789        H797   1.086       .  S
C789        C790   1.350       .  D
C790        H798   1.085       .  S
C799        C807   1.480       .  S
C799        C800   1.402       .  A
C799        C804   1.407       .  A
C800        C801   1.395       .  A
C800        H809   1.084       .  S
C801        C802   1.407       .  A
C801        H810   1.082       .  S
C802        C805   1.482       .  S
C802        C803   1.402       .  A
C803        C804   1.398       .  A
C803        H811   1.083       .  S
C804        H812   1.081       .  S
C805        H813   1.087       .  S
C805        C806   1.342       .  D
C806        H814   1.085       .  S
C807        H815   1.087       .  S
C807        C808   1.346       .  D
C808        H816   1.085       .  S
C817        C825   1.497       .  S
C817        C818   1.404       .  A
C817        C822   1.412       .  A
C818        C819   1.400       .  A
C818        H827   1.083       .  S
C819        C820   1.409       .  A
C819        H828   1.082       .  S
C820        C823   1.492       .  S
C820        C821   1.401       .  A
C821        C822   1.401       .  A
C821        H829   1.083       .  S
C822        H830   1.079       .  S
C823        H831   1.087       .  S
C823        C824   1.343       .  D
C824        H832   1.086       .  S
C825        H833   1.087       .  S
C825        C826   1.346       .  D
C826        H834   1.082       .  S
C835        C843   1.480       .  S
C835        C836   1.402       .  A
C835        C840   1.404       .  A
C836        C837   1.400       .  A
C836        H845   1.084       .  S
C837        C838   1.409       .  A
C837        H846   1.080       .  S
C838        C841   1.484       .  S
C838        C839   1.403       .  A
C839        C840   1.393       .  A
C839        H847   1.084       .  S
C840        H848   1.082       .  S
C841        H849   1.088       .  S
C841        C842   1.346       .  D
C842        H850   1.083       .  S
C843        H851   1.087       .  S
C843        C844   1.343       .  D
C844        H852   1.086       .  S
C853        C861   1.490       .  S
C853        C854   1.405       .  A
C853        C858   1.409       .  A
C854        C855   1.396       .  A
C854        H863   1.084       .  S
C855        C856   1.406       .  A
C855        H864   1.082       .  S
C856        C859   1.488       .  S
C856        C857   1.404       .  A
C857        C858   1.402       .  A
C857        H865   1.083       .  S
C858        H866   1.080       .  S
C859        H867   1.087       .  S
C859        C860   1.347       .  D
C860        H868   1.085       .  S
C861        H869   1.087       .  S
C861        C862   1.350       .  D
C862        H870   1.083       .  S
C871        C879   1.484       .  S
C871        C872   1.404       .  A
C871        C876   1.409       .  A
C872        C873   1.394       .  A
C872        H881   1.083       .  S
C873        C874   1.404       .  A
C873        H882   1.082       .  S
C874        C877   1.480       .  S
C874        C875   1.402       .  A
C875        C876   1.398       .  A
C875        H883   1.083       .  S
C876        H884   1.080       .  S
C877        H885   1.087       .  S
C877        C878   1.345       .  D
C878        H886   1.086       .  S
C879        H887   1.087       .  S
C879        C880   1.347       .  D
C880        H888   1.082       .  S
C889        C897   1.490       .  S
C889        C890   1.410       .  A
C889        C894   1.402       .  A
C890        C891   1.403       .  A
C890        H899   1.081       .  S
C891        C892   1.409       .  A
C891        H900   1.080       .  S
C892        C895   1.491       .  S
C892        C893   1.404       .  A
C893        C894   1.396       .  A
C893        H901   1.083       .  S
C894        H902   1.084       .  S
C895        H903   1.087       .  S
C895        C896   1.349       .  D
C896        H904   1.083       .  S
C897        H905   1.087       .  S
C897        C898   1.348       .  D
C898        H906   1.084       .  S
C907        C915   1.480       .  S
C907        C908   1.403       .  A
C907        C912   1.406       .  A
C908        C909   1.398       .  A
C908        H917   1.084   1_545  S
C909        C910   1.405       .  A
C909        H918   1.083       .  S
C910        C913   1.478       .  S
C910        C911   1.402       .  A
C911        C912   1.398       .  A
C911        H919   1.084       .  S
C912        H920   1.082       .  S
C913        H921   1.088       .  S
C913        C914   1.345       .  D
C914        H922   1.086       .  S
C915        H923   1.087   1_545  S
C915        C916   1.344       .  D
C916        H924   1.086       .  S
C925        C933   1.489       .  S
C925        C926   1.401       .  A
C925        C930   1.411       .  A
C926        C927   1.396       .  A
C926        H935   1.083       .  S
C927        C928   1.409       .  A
C927        H936   1.082       .  S
C928        C931   1.489       .  S
C928        C929   1.402       .  A
C929        C930   1.402       .  A
C929        H937   1.083       .  S
C930        H938   1.081       .  S
C931        H939   1.087       .  S
C931        C932   1.343       .  D
C932        H940   1.086       .  S
C933        H941   1.087       .  S
C933        C934   1.343       .  D
C934        H942   1.085       .  S
C943        C951   1.485       .  S
C943        C944   1.405       .  A
C943        C948   1.404       .  A
C944        C945   1.404       .  A
C944        H953   1.083       .  S
C945        C946   1.409       .  A
C945        H954   1.080       .  S
C946        C949   1.487       .  S
C946        C947   1.404       .  A
C947        C948   1.393       .  A
C947        H955   1.084       .  S
C948        H956   1.082       .  S
C949        H957   1.087       .  S
C949        C950   1.351       .  D
C950        H958   1.083       .  S
C951        H959   1.087       .  S
C951        C952   1.347       .  D
C952        H960   1.086       .  S
C961        C969   1.493       .  S
C961        C962   1.402       .  A
C961        C966   1.412       .  A
C962        C963   1.397       .  A
C962        H971   1.083       .  S
C963        C964   1.404       .  A
C963        H972   1.084       .  S
C964        C967   1.486       .  S
C964        C965   1.406       .  A
C965        C966   1.407       .  A
C965        H973   1.083       .  S
C966        H974   1.082       .  S
C967        H975   1.088       .  S
C967        C968   1.352       .  D
C968        H976   1.086       .  S
C969        H977   1.087       .  S
C969        C970   1.346       .  D
C970        H978   1.085       .  S
C979        C987   1.492       .  S
C979        C980   1.403       .  A
C979        C984   1.410       .  A
C980        C981   1.399       .  A
C980        H989   1.083       .  S
C981        C982   1.409       .  A
C981        H990   1.081       .  S
C982        C985   1.494       .  S
C982        C983   1.404       .  A
C983        C984   1.402       .  A
C983        H991   1.083       .  S
C984        H992   1.081       .  S
C985        H993   1.086       .  S
C985        C986   1.347       .  D
C986        H994   1.085       .  S
C987        H995   1.087       .  S
C987        C988   1.348       .  D
C988        H996   1.084       .  S
C997       C1005   1.493       .  S
C997        C998   1.405       .  A
C997       C1002   1.406       .  A
C998        C999   1.407       .  A
C998       H1007   1.083       .  S
C999       C1000   1.411       .  A
C999       H1008   1.080       .  S
C1000      C1003   1.493       .  S
C1000      C1001   1.404       .  A
C1001      C1002   1.394       .  A
C1001      H1009   1.084       .  S
C1002      H1010   1.082       .  S
C1003      H1011   1.087       .  S
C1003      C1004   1.350       .  D
C1004      H1012   1.083       .  S
C1005      H1013   1.086       .  S
C1005      C1006   1.346       .  D
C1006      H1014   1.086       .  S
C1015      C1023   1.486       .  S
C1015      C1016   1.407       .  A
C1015      C1020   1.403       .  A
C1016      C1017   1.407       .  A
C1016      H1025   1.083       .  S
C1017      C1018   1.407       .  A
C1017      H1026   1.082       .  S
C1018      C1021   1.485       .  S
C1018      C1019   1.404       .  A
C1019      C1020   1.392       .  A
C1019      H1027   1.084       .  S
C1020      H1028   1.083       .  S
C1021      H1029   1.087       .  S
C1021      C1022   1.352       .  D
C1022      H1030   1.085       .  S
C1023      H1031   1.087       .  S
C1023      C1024   1.348       .  D
C1024      H1032   1.086       .  S
C1033      C1041   1.498       .  S
C1033      C1034   1.403       .  A
C1033      C1038   1.411       .  A
C1034      C1035   1.400       .  A
C1034      H1043   1.083       .  S
C1035      C1036   1.411       .  A
C1035      H1044   1.080       .  S
C1036      C1039   1.502       .  S
C1036      C1037   1.406       .  A
C1037      C1038   1.405       .  A
C1037      H1045   1.083       .  S
C1038      H1046   1.080       .  S
C1039      H1047   1.087       .  S
C1039      C1040   1.348       .  D
C1040      H1048   1.083       .  S
C1041      H1049   1.087       .  S
C1041      C1042   1.349       .  D
C1042      H1050   1.084       .  S
C1051      C1059   1.488       .  S
C1051      C1052   1.403       .  A
C1051      C1056   1.407       .  A
C1052      C1053   1.400       .  A
C1052      H1061   1.084       .  S
C1053      C1054   1.409       .  A
C1053      H1062   1.081       .  S
C1054      C1057   1.490       .  S
C1054      C1055   1.404       .  A
C1055      C1056   1.398       .  A
C1055      H1063   1.083       .  S
C1056      H1064   1.081       .  S
C1057      H1065   1.087       .  S
C1057      C1058   1.347       .  D
C1058      H1066   1.084       .  S
C1059      H1067   1.087       .  S
C1059      C1060   1.346       .  D
C1060      H1068   1.085       .  S
C1069      C1077   1.489       .  S
C1069      C1070   1.406       .  A
C1069      C1074   1.407       .  A
C1070      C1071   1.402       .  A
C1070      H1079   1.083       .  S
C1071      C1072   1.407       .  A
C1071      H1080   1.082       .  S
C1072      C1075   1.482       .  S
C1072      C1073   1.402       .  A
C1073      C1074   1.394       .  A
C1073      H1081   1.084       .  S
C1074      H1082   1.080       .  S
C1075      H1083   1.088       .  S
C1075      C1076   1.348       .  D
C1076      H1084   1.085       .  S
C1077      H1085   1.087       .  S
C1077      C1078   1.348       .  D
C1078      H1086   1.083       .  S
C1087      C1095   1.483       .  S
C1087      C1088   1.406       .  A
C1087      C1092   1.403       .  A
C1088      C1089   1.402       .  A
C1088      H1097   1.084       .  S
C1089      C1090   1.407       .  A
C1089      H1098   1.081       .  S
C1090      C1093   1.483       .  S
C1090      C1091   1.404       .  A
C1091      C1092   1.392       .  A
C1091      H1099   1.084       .  S
C1092      H1100   1.081       .  S
C1093      H1101   1.088       .  S
C1093      C1094   1.351       .  D
C1094      H1102   1.084       .  S
C1095      H1103   1.088       .  S
C1095      C1096   1.348       .  D
C1096      H1104   1.085       .  S
C1105      C1113   1.491       .  S
C1105      C1106   1.402       .  A
C1105      C1110   1.408       .  A
C1106      C1107   1.401       .  A
C1106      H1115   1.084       .  S
C1107      C1108   1.411       .  A
C1107      H1116   1.079       .  S
C1108      C1111   1.495       .  S
C1108      C1109   1.404       .  A
C1109      C1110   1.398       .  A
C1109      H1117   1.084       .  S
C1110      H1118   1.082       .  S
C1111      H1119   1.088       .  S
C1111      C1112   1.347       .  D
C1112      H1120   1.083       .  S
C1113      H1121   1.087       .  S
C1113      C1114   1.344       .  D
C1114      H1122   1.086       .  S
C1123      C1131   1.492       .  S
C1123      C1124   1.405       .  A
C1123      C1128   1.407       .  A
C1124      C1125   1.404       .  A
C1124      H1133   1.083       .  S
C1125      C1126   1.410       .  A
C1125      H1134   1.080       .  S
C1126      C1129   1.493       .  S
C1126      C1127   1.404       .  A
C1127      C1128   1.397       .  A
C1127      H1135   1.083       .  S
C1128      H1136   1.082       .  S
C1129      H1137   1.087       .  S
C1129      C1130   1.350       .  D
C1130      H1138   1.084       .  S
C1131      H1139   1.087       .  S
C1131      C1132   1.347       .  D
C1132      H1140   1.085       .  S
C1141      C1149   1.492       .  S
C1141      C1142   1.407       .  A
C1141      C1146   1.406       .  A
C1142      C1143   1.405       .  A
C1142      H1151   1.083       .  S
C1143      C1144   1.406       .  A
C1143      H1152   1.082       .  S
C1144      C1147   1.485       .  S
C1144      C1145   1.403       .  A
C1145      C1146   1.396       .  A
C1145      H1153   1.084       .  S
C1146      H1154   1.082       .  S
C1147      H1155   1.088       .  S
C1147      C1148   1.351       .  D
C1148      H1156   1.085       .  S
C1149      H1157   1.087       .  S
C1149      C1150   1.347       .  D
C1150      H1158   1.086       .  S
C1159      C1167   1.495       .  S
C1159      C1160   1.405       .  A
C1159      C1164   1.408       .  A
C1160      C1161   1.405       .  A
C1160      H1169   1.083       .  S
C1161      C1162   1.410       .  A
C1161      H1170   1.081       .  S
C1162      C1165   1.494       .  S
C1162      C1163   1.404       .  A
C1163      C1164   1.398       .  A
C1163      H1171   1.083       .  S
C1164      H1172   1.082       .  S
C1165      H1173   1.087       .  S
C1165      C1166   1.350       .  D
C1166      H1174   1.084       .  S
C1167      H1175   1.086       .  S
C1167      C1168   1.347       .  D
C1168      H1176   1.085       .  S
C1177      C1185   1.495       .  S
C1177      C1178   1.403       .  A
C1177      C1182   1.412       .  A
C1178      C1179   1.398       .  A
C1178      H1187   1.083       .  S
C1179      C1180   1.405       .  A
C1179      H1188   1.083       .  S
C1180      C1183   1.491       .  S
C1180      C1181   1.407       .  A
C1181      C1182   1.404       .  A
C1181      H1189   1.081       .  S
C1182      H1190   1.080       .  S
C1183      H1191   1.087   1_554  S
C1183      C1184   1.353   1_554  D
C1184      H1192   1.084   1_556  S
C1185      H1193   1.087       .  S
C1185      C1186   1.346       .  D
C1186      H1194   1.083       .  S
C1195      C1203   1.486       .  S
C1195      C1196   1.403       .  A
C1195      C1200   1.409       .  A
C1196      C1197   1.393       .  A
C1196      H1205   1.084       .  S
C1197      C1198   1.405       .  A
C1197      H1206   1.082       .  S
C1198      C1201   1.483       .  S
C1198      C1199   1.403       .  A
C1199      C1200   1.400       .  A
C1199      H1207   1.084       .  S
C1200      H1208   1.080       .  S
C1201      H1209   1.087       .  S
C1201      C1202   1.345       .  D
C1202      H1210   1.085       .  S
C1203      H1211   1.088       .  S
C1203      C1204   1.347       .  D
C1204      H1212   1.084       .  S
C1213      C1221   1.499       .  S
C1213      C1214   1.405       .  A
C1213      C1218   1.411       .  A
C1214      C1215   1.399       .  A
C1214      H1223   1.083       .  S
C1215      C1216   1.408       .  A
C1215      H1224   1.081       .  S
C1216      C1219   1.498       .  S
C1216      C1217   1.406       .  A
C1217      C1218   1.406       .  A
C1217      H1225   1.083       .  S
C1218      H1226   1.080       .  S
C1219      H1227   1.087       .  S
C1219      C1220   1.349       .  D
C1220      H1228   1.085       .  S
C1221      H1229   1.087       .  S
C1221      C1222   1.351       .  D
C1222      H1230   1.083       .  S
C1231      C1239   1.487       .  S
C1231      C1232   1.404       .  A
C1231      C1236   1.408       .  A
C1232      C1233   1.396       .  A
C1232      H1241   1.084       .  S
C1233      C1234   1.402       .  A
C1233      H1242   1.083       .  S
C1234      C1237   1.486       .  S
C1234      C1235   1.408       .  A
C1235      C1236   1.400       .  A
C1235      H1243   1.082       .  S
C1236      H1244   1.081       .  S
C1237      H1245   1.087       .  S
C1237      C1238   1.344       .  D
C1238      H1246   1.085       .  S
C1239      H1247   1.087       .  S
C1239      C1240   1.348       .  D
C1240      H1248   1.084       .  S
C1249      C1257   1.482       .  S
C1249      C1250   1.403       .  A
C1249      C1254   1.405       .  A
C1250      C1251   1.401       .  A
C1250      H1259   1.083       .  S
C1251      C1252   1.407       .  A
C1251      H1260   1.082       .  S
C1252      C1255   1.483       .  S
C1252      C1253   1.403       .  A
C1253      C1254   1.396       .  A
C1253      H1261   1.084       .  S
C1254      H1262   1.083       .  S
C1255      H1263   1.087       .  S
C1255      C1256   1.347       .  D
C1256      H1264   1.086       .  S
C1257      H1265   1.087       .  S
C1257      C1258   1.342       .  D
C1258      H1266   1.087       .  S
C1267      C1275   1.493       .  S
C1267      C1268   1.406       .  A
C1267      C1272   1.407       .  A
C1268      C1269   1.399       .  A
C1268      H1277   1.084       .  S
C1269      C1270   1.407       .  A
C1269      H1278   1.081       .  S
C1270      C1273   1.493       .  S
C1270      C1271   1.406       .  A
C1271      C1272   1.402       .  A
C1271      H1279   1.083       .  S
C1272      H1280   1.080       .  S
C1273      H1281   1.087       .  S
C1273      C1274   1.351       .  D
C1274      H1282   1.084       .  S
C1275      H1283   1.087       .  S
C1275      C1276   1.353       .  D
C1276      H1284   1.084       .  S
C1285      C1293   1.481       .  S
C1285      C1286   1.404       .  A
C1285      C1290   1.404       .  A
C1286      C1287   1.402       .  A
C1286      H1295   1.083       .  S
C1287      C1288   1.408       .  A
C1287      H1296   1.080       .  S
C1288      C1291   1.484       .  S
C1288      C1289   1.404       .  A
C1289      C1290   1.392       .  A
C1289      H1297   1.084       .  S
C1290      H1298   1.083       .  S
C1291      H1299   1.088       .  S
C1291      C1292   1.349       .  D
C1292      H1300   1.084       .  S
C1293      H1301   1.087       .  S
C1293      C1294   1.346       .  D
C1294      H1302   1.086       .  S
C1303      C1311   1.486       .  S
C1303      C1304   1.401       .  A
C1303      C1308   1.410       .  A
C1304      C1305   1.396       .  A
C1304      H1313   1.084       .  S
C1305      C1306   1.409       .  A
C1305      H1314   1.081       .  S
C1306      C1309   1.487       .  S
C1306      C1307   1.402       .  A
C1307      C1308   1.399       .  A
C1307      H1315   1.083       .  S
C1308      H1316   1.081       .  S
C1309      H1317   1.087       .  S
C1309      C1310   1.342       .  D
C1310      H1318   1.085       .  S
C1311      H1319   1.087       .  S
C1311      C1312   1.344   1_545  D
C1312      H1320   1.085   1_565  S
C1321      C1329   1.481       .  S
C1321      C1322   1.405       .  A
C1321      C1326   1.404       .  A
C1322      C1323   1.403       .  A
C1322      H1331   1.083       .  S
C1323      C1324   1.405       .  A
C1323      H1332   1.083       .  S
C1324      C1327   1.478       .  S
C1324      C1325   1.402       .  A
C1325      C1326   1.394       .  A
C1325      H1333   1.084       .  S
C1326      H1334   1.083       .  S
C1327      H1335   1.088       .  S
C1327      C1328   1.348       .  D
C1328      H1336   1.086       .  S
C1329      H1337   1.087       .  S
C1329      C1330   1.343       .  D
C1330      H1338   1.087       .  S
C1339      C1347   1.499       .  S
C1339      C1340   1.408       .  A
C1339      C1344   1.408       .  A
C1340      C1341   1.404       .  A
C1340      H1349   1.083       .  S
C1341      C1342   1.407       .  A
C1341      H1350   1.080       .  S
C1342      C1345   1.497       .  S
C1342      C1343   1.407       .  A
C1343      C1344   1.401       .  A
C1343      H1351   1.083       .  S
C1344      H1352   1.080       .  S
C1345      H1353   1.087       .  S
C1345      C1346   1.354       .  D
C1346      H1354   1.084       .  S
C1347      H1355   1.087       .  S
C1347      C1348   1.353       .  D
C1348      H1356   1.083       .  S
C1357      C1365   1.489       .  S
C1357      C1358   1.402       .  A
C1357      C1362   1.410       .  A
C1358      C1359   1.397       .  A
C1358      H1367   1.084       .  S
C1359      C1360   1.408       .  A
C1359      H1368   1.081       .  S
C1360      C1363   1.489       .  S
C1360      C1361   1.403       .  A
C1361      C1362   1.401       .  A
C1361      H1369   1.084       .  S
C1362      H1370   1.081       .  S
C1363      H1371   1.087       .  S
C1363      C1364   1.344       .  D
C1364      H1372   1.086       .  S
C1365      H1373   1.087       .  S
C1365      C1366   1.346       .  D
C1366      H1374   1.084       .  S
C1375      C1383   1.497       .  S
C1375      C1376   1.405       .  A
C1375      C1380   1.411       .  A
C1376      C1377   1.400       .  A
C1376      H1385   1.083       .  S
C1377      C1378   1.408       .  A
C1377      H1386   1.081       .  S
C1378      C1381   1.494       .  S
C1378      C1379   1.403       .  A
C1379      C1380   1.401       .  A
C1379      H1387   1.083       .  S
C1380      H1388   1.079       .  S
C1381      H1389   1.087       .  S
C1381      C1382   1.346       .  D
C1382      H1390   1.084       .  S
C1383      H1391   1.087       .  S
C1383      C1384   1.348       .  D
C1384      H1392   1.082       .  S
C1393      C1401   1.490       .  S
C1393      C1394   1.406       .  A
C1393      C1398   1.406       .  A
C1394      C1395   1.403       .  A
C1394      H1403   1.083       .  S
C1395      C1396   1.408       .  A
C1395      H1404   1.080       .  S
C1396      C1399   1.490       .  S
C1396      C1397   1.405       .  A
C1397      C1398   1.396       .  A
C1397      H1405   1.083       .  S
C1398      H1406   1.081       .  S
C1399      H1407   1.087       .  S
C1399      C1400   1.352       .  D
C1400      H1408   1.083       .  S
C1401      H1409   1.087       .  S
C1401      C1402   1.349       .  D
C1402      H1410   1.084       .  S
C1411      C1419   1.493       .  S
C1411      C1412   1.405       .  A
C1411      C1416   1.409       .  A
C1412      C1413   1.400       .  A
C1412      H1421   1.083       .  S
C1413      C1414   1.408       .  A
C1413      H1422   1.081       .  S
C1414      C1417   1.490       .  S
C1414      C1415   1.403       .  A
C1415      C1416   1.399       .  A
C1415      H1423   1.083       .  S
C1416      H1424   1.080       .  S
C1417      H1425   1.087       .  S
C1417      C1418   1.346       .  D
C1418      H1426   1.085       .  S
C1419      H1427   1.086       .  S
C1419      C1420   1.349       .  D
C1420      H1428   1.082       .  S
C1429      C1437   1.488       .  S
C1429      C1430   1.405       .  A
C1429      C1434   1.408       .  A
C1430      C1431   1.397       .  A
C1430      H1439   1.084       .  S
C1431      C1432   1.406       .  A
C1431      H1440   1.082       .  S
C1432      C1435   1.487       .  S
C1432      C1433   1.403       .  A
C1433      C1434   1.400       .  A
C1433      H1441   1.083       .  S
C1434      H1442   1.080       .  S
C1435      H1443   1.087       .  S
C1435      C1436   1.345       .  D
C1436      H1444   1.085       .  S
C1437      H1445   1.087       .  S
C1437      C1438   1.349       .  D
C1438      H1446   1.083       .  S
C1447      C1455   1.491       .  S
C1447      C1448   1.405       .  A
C1447      C1452   1.407       .  A
C1448      C1449   1.405       .  A
C1448      H1457   1.083       .  S
C1449      C1450   1.411       .  A
C1449      H1458   1.080       .  S
C1450      C1453   1.489       .  S
C1450      C1451   1.401       .  A
C1451      C1452   1.392       .  A
C1451      H1459   1.084       .  S
C1452      H1460   1.081       .  S
C1453      H1461   1.087       .  S
C1453      C1454   1.346       .  D
C1454      H1462   1.084       .  S
C1455      H1463   1.087       .  S
C1455      C1456   1.345       .  D
C1456      H1464   1.085       .  S
C1465      C1473   1.497       .  S
C1465      C1466   1.407       .  A
C1465      C1470   1.408       .  A
C1466      C1467   1.405       .  A
C1466      H1475   1.083       .  S
C1467      C1468   1.409       .  A
C1467      H1476   1.080       .  S
C1468      C1471   1.497       .  S
C1468      C1469   1.406       .  A
C1469      C1470   1.400       .  A
C1469      H1477   1.083       .  S
C1470      H1478   1.081       .  S
C1471      H1479   1.087       .  S
C1471      C1472   1.352       .  D
C1472      H1480   1.083       .  S
C1473      H1481   1.087       .  S
C1473      C1474   1.350       .  D
C1474      H1482   1.085   1_554  S
C1483      C1491   1.492       .  S
C1483      C1484   1.403       .  A
C1483      C1488   1.409       .  A
C1484      C1485   1.399       .  A
C1484      H1493   1.083       .  S
C1485      C1486   1.410       .  A
C1485      H1494   1.081       .  S
C1486      C1489   1.494       .  S
C1486      C1487   1.404       .  A
C1487      C1488   1.401       .  A
C1487      H1495   1.083       .  S
C1488      H1496   1.081       .  S
C1489      H1497   1.087       .  S
C1489      C1490   1.345       .  D
C1490      H1498   1.085       .  S
C1491      H1499   1.087       .  S
C1491      C1492   1.346       .  D
C1492      H1500   1.084   1_655  S
C1501      C1509   1.490       .  S
C1501      C1502   1.404       .  A
C1501      C1506   1.409       .  A
C1502      C1503   1.395       .  A
C1502      H1511   1.084       .  S
C1503      C1504   1.406       .  A
C1503      H1512   1.081       .  S
C1504      C1507   1.492       .  S
C1504      C1505   1.407       .  A
C1505      C1506   1.406       .  A
C1505      H1513   1.083       .  S
C1506      H1514   1.081       .  S
C1507      H1515   1.086       .  S
C1507      C1508   1.349       .  D
C1508      H1516   1.085       .  S
C1509      H1517   1.087       .  S
C1509      C1510   1.352       .  D
C1510      H1518   1.084       .  S
C1519      C1527   1.488       .  S
C1519      C1520   1.405       .  A
C1519      C1524   1.406       .  A
C1520      C1521   1.403       .  A
C1520      H1529   1.084       .  S
C1521      C1522   1.408       .  A
C1521      H1530   1.081       .  S
C1522      C1525   1.488       .  S
C1522      C1523   1.403       .  A
C1523      C1524   1.394       .  A
C1523      H1531   1.084       .  S
C1524      H1532   1.081       .  S
C1525      H1533   1.087       .  S
C1525      C1526   1.349       .  D
C1526      H1534   1.084       .  S
C1527      H1535   1.087       .  S
C1527      C1528   1.348       .  D
C1528      H1536   1.084       .  S
C1537      C1545   1.495       .  S
C1537      C1538   1.403       .  A
C1537      C1542   1.412       .  A
C1538      C1539   1.398       .  A
C1538      H1547   1.083       .  S
C1539      C1540   1.409       .  A
C1539      H1548   1.082       .  S
C1540      C1543   1.495       .  S
C1540      C1541   1.404       .  A
C1541      C1542   1.405       .  A
C1541      H1549   1.083       .  S
C1542      H1550   1.080       .  S
C1543      H1551   1.086       .  S
C1543      C1544   1.346       .  D
C1544      H1552   1.085       .  S
C1545      H1553   1.087       .  S
C1545      C1546   1.347       .  D
C1546      H1554   1.084       .  S
C1555      C1563   1.485       .  S
C1555      C1556   1.405       .  A
C1555      C1560   1.404       .  A
C1556      C1557   1.404       .  A
C1556      H1565   1.083       .  S
C1557      C1558   1.406       .  A
C1557      H1566   1.082       .  S
C1558      C1561   1.484       .  S
C1558      C1559   1.404       .  A
C1559      C1560   1.396       .  A
C1559      H1567   1.084       .  S
C1560      H1568   1.083       .  S
C1561      H1569   1.088       .  S
C1561      C1562   1.349       .  D
C1562      H1570   1.086       .  S
C1563      H1571   1.087       .  S
C1563      C1564   1.345       .  D
C1564      H1572   1.087       .  S
C1573      C1581   1.498       .  S
C1573      C1574   1.407       .  A
C1573      C1578   1.408       .  A
C1574      C1575   1.405       .  A
C1574      H1583   1.083       .  S
C1575      C1576   1.409       .  A
C1575      H1584   1.081       .  S
C1576      C1579   1.494       .  S
C1576      C1577   1.404       .  A
C1577      C1578   1.397       .  A
C1577      H1585   1.084       .  S
C1578      H1586   1.080       .  S
C1579      H1587   1.087       .  S
C1579      C1580   1.352       .  D
C1580      H1588   1.084       .  S
C1581      H1589   1.087       .  S
C1581      C1582   1.350       .  D
C1582      H1590   1.083       .  S
C1591      C1599   1.491       .  S
C1591      C1592   1.406       .  A
C1591      C1596   1.406       .  A
C1592      C1593   1.404       .  A
C1592      H1601   1.083       .  S
C1593      C1594   1.408       .  A
C1593      H1602   1.080       .  S
C1594      C1597   1.490       .  S
C1594      C1595   1.404       .  A
C1595      C1596   1.395       .  A
C1595      H1603   1.084       .  S
C1596      H1604   1.081       .  S
C1597      H1605   1.087       .  S
C1597      C1598   1.351       .  D
C1598      H1606   1.084       .  S
C1599      H1607   1.087       .  S
C1599      C1600   1.347       .  D
C1600      H1608   1.085       .  S
C1609      C1617   1.489       .  S
C1609      C1610   1.405       .  A
C1609      C1614   1.408       .  A
C1610      C1611   1.396       .  A
C1610      H1619   1.083       .  S
C1611      C1612   1.405       .  A
C1611      H1620   1.082       .  S
C1612      C1615   1.489       .  S
C1612      C1613   1.405       .  A
C1613      C1614   1.402       .  A
C1613      H1621   1.083       .  S
C1614      H1622   1.080       .  S
C1615      H1623   1.087       .  S
C1615      C1616   1.347       .  D
C1616      H1624   1.085       .  S
C1617      H1625   1.087       .  S
C1617      C1618   1.351       .  D
C1618      H1626   1.083       .  S
C1627      C1635   1.498       .  S
C1627      C1628   1.406       .  A
C1627      C1632   1.410       .  A
C1628      C1629   1.403       .  A
C1628      H1637   1.083       .  S
C1629      C1630   1.410       .  A
C1629      H1638   1.081       .  S
C1630      C1633   1.495       .  S
C1630      C1631   1.403       .  A
C1631      C1632   1.399       .  A
C1631      H1639   1.083       .  S
C1632      H1640   1.080       .  S
C1633      H1641   1.087       .  S
C1633      C1634   1.348       .  D
C1634      H1642   1.084       .  S
C1635      H1643   1.087       .  S
C1635      C1636   1.349       .  D
C1636      H1644   1.083       .  S
C1645      C1653   1.487       .  S
C1645      C1646   1.402       .  A
C1645      C1650   1.407       .  A
C1646      C1647   1.401       .  A
C1646      H1655   1.083       .  S
C1647      C1648   1.411       .  A
C1647      H1656   1.080       .  S
C1648      C1651   1.491       .  S
C1648      C1649   1.404       .  A
C1649      C1650   1.397       .  A
C1649      H1657   1.083       .  S
C1650      H1658   1.083   1_545  S
C1651      H1659   1.087   1_556  S
C1651      C1652   1.347       .  D
C1652      H1660   1.083       .  S
C1653      H1661   1.087       .  S
C1653      C1654   1.343   1_545  D
C1654      H1662   1.086       .  S
C1663      C1671   1.487   1_545  S
C1663      C1664   1.405       .  A
C1663      C1668   1.405       .  A
C1664      C1665   1.403       .  A
C1664      H1673   1.083   1_545  S
C1665      C1666   1.407       .  A
C1665      H1674   1.082       .  S
C1666      C1669   1.486       .  S
C1666      C1667   1.404       .  A
C1667      C1668   1.397       .  A
C1667      H1675   1.084       .  S
C1668      H1676   1.083       .  S
C1669      H1677   1.088       .  S
C1669      C1670   1.349       .  D
C1670      H1678   1.086       .  S
C1671      H1679   1.087       .  S
C1671      C1672   1.345   1_565  D
C1672      H1680   1.087       .  S
C1681      C1689   1.489       .  S
C1681      C1682   1.406       .  A
C1681      C1686   1.407       .  A
C1682      C1683   1.397       .  A
C1682      H1691   1.084       .  S
C1683      C1684   1.407       .  A
C1683      H1692   1.080       .  S
C1684      C1687   1.490       .  S
C1684      C1685   1.406       .  A
C1685      C1686   1.400       .  A
C1685      H1693   1.083       .  S
C1686      H1694   1.080       .  S
C1687      H1695   1.087       .  S
C1687      C1688   1.350       .  D
C1688      H1696   1.083       .  S
C1689      H1697   1.087       .  S
C1689      C1690   1.352       .  D
C1690      H1698   1.083       .  S
C1699      C1707   1.492       .  S
C1699      C1700   1.404       .  A
C1699      C1704   1.409       .  A
C1700      C1701   1.403       .  A
C1700      H1709   1.083       .  S
C1701      C1702   1.410       .  A
C1701      H1710   1.081       .  S
C1702      C1705   1.490       .  S
C1702      C1703   1.402       .  A
C1703      C1704   1.397       .  A
C1703      H1711   1.084       .  S
C1704      H1712   1.081       .  S
C1705      H1713   1.088       .  S
C1705      C1706   1.347       .  D
C1706      H1714   1.085       .  S
C1707      H1715   1.086       .  S
C1707      C1708   1.345       .  D
C1708      H1716   1.085       .  S
C1717      C1725   1.487       .  S
C1717      C1718   1.406       .  A
C1717      C1722   1.405       .  A
C1718      C1719   1.405       .  A
C1718      H1727   1.083       .  S
C1719      C1720   1.405       .  A
C1719      H1728   1.083       .  S
C1720      C1723   1.481       .  S
C1720      C1721   1.403       .  A
C1721      C1722   1.396       .  A
C1721      H1729   1.084       .  S
C1722      H1730   1.083       .  S
C1723      H1731   1.088       .  S
C1723      C1724   1.348       .  D
C1724      H1732   1.086       .  S
C1725      H1733   1.087       .  S
C1725      C1726   1.345       .  D
C1726      H1734   1.087       .  S
C1735      C1743   1.488       .  S
C1735      C1736   1.405       .  A
C1735      C1740   1.407       .  A
C1736      C1737   1.399       .  A
C1736      H1745   1.084       .  S
C1737      C1738   1.407       .  A
C1737      H1746   1.081       .  S
C1738      C1741   1.486       .  S
C1738      C1739   1.403       .  A
C1739      C1740   1.397       .  A
C1739      H1747   1.083       .  S
C1740      H1748   1.081       .  S
C1741      H1749   1.087       .  S
C1741      C1742   1.346       .  D
C1742      H1750   1.085       .  S
C1743      H1751   1.087       .  S
C1743      C1744   1.347       .  D
C1744      H1752   1.084       .  S
C1753      C1761   1.485       .  S
C1753      C1754   1.405       .  A
C1753      C1758   1.406       .  A
C1754      C1755   1.401       .  A
C1754      H1763   1.083       .  S
C1755      C1756   1.407       .  A
C1755      H1764   1.081       .  S
C1756      C1759   1.482       .  S
C1756      C1757   1.402       .  A
C1757      C1758   1.393       .  A
C1757      H1765   1.083       .  S
C1758      H1766   1.081       .  S
C1759      H1767   1.087       .  S
C1759      C1760   1.347       .  D
C1760      H1768   1.084       .  S
C1761      H1769   1.087       .  S
C1761      C1762   1.346       .  D
C1762      H1770   1.084       .  S
C1771      C1779   1.485       .  S
C1771      C1772   1.406       .  A
C1771      C1776   1.404       .  A
C1772      C1773   1.404       .  A
C1772      H1781   1.083       .  S
C1773      C1774   1.408       .  A
C1773      H1782   1.080       .  S
C1774      C1777   1.486       .  S
C1774      C1775   1.404       .  A
C1775      C1776   1.392       .  A
C1775      H1783   1.084       .  S
C1776      H1784   1.082       .  S
C1777      H1785   1.088       .  S
C1777      C1778   1.351       .  D
C1778      H1786   1.084       .  S
C1779      H1787   1.086       .  S
C1779      C1780   1.348       .  D
C1780      H1788   1.085       .  S
C1789      C1797   1.480       .  S
C1789      C1790   1.402       .  A
C1789      C1794   1.405       .  A
C1790      C1791   1.397       .  A
C1790      H1799   1.084       .  S
C1791      C1792   1.408       .  A
C1791      H1800   1.079       .  S
C1792      C1795   1.485       .  S
C1792      C1793   1.404       .  A
C1793      C1794   1.394       .  A
C1793      H1801   1.084       .  S
C1794      H1802   1.082       .  S
C1795      H1803   1.088       .  S
C1795      C1796   1.347       .  D
C1796      H1804   1.083       .  S
C1797      H1805   1.087       .  S
C1797      C1798   1.345       .  D
C1798      H1806   1.085       .  S
C1807      C1815   1.489       .  S
C1807      C1808   1.404       .  A
C1807      C1812   1.409       .  A
C1808      C1809   1.396       .  A
C1808      H1817   1.084       .  S
C1809      C1810   1.407       .  A
C1809      H1818   1.081       .  S
C1810      C1813   1.489       .  S
C1810      C1811   1.404       .  A
C1811      C1812   1.402       .  A
C1811      H1819   1.083       .  S
C1812      H1820   1.080       .  S
C1813      H1821   1.087       .  S
C1813      C1814   1.345       .  D
C1814      H1822   1.086       .  S
C1815      H1823   1.087       .  S
C1815      C1816   1.349       .  D
C1816      H1824   1.083       .  S
