geometry optimzed in LAMMPS
_audit_creation_date              2020-12-01 
_audit_creation_method            'lammps2cif' 
_symmetry_space_group_name_H-M    'P1' 
_symmetry_Int_Tables_number       1 
_symmetry_cell_setting            triclinic 
loop_ 
_symmetry_equiv_pos_as_xyz 
  x,y,z 
_cell_length_a                    30.1688413 
_cell_length_b                    30.019472109262068 
_cell_length_c                    32.03545433420314 
_cell_angle_alpha                 89.9524632382491 
_cell_angle_beta                  90.09032414432643 
_cell_angle_gamma                 89.98506933890685 
loop_ 
_atom_site_label 
_atom_site_type_symbol 
_atom_site_fract_x 
_atom_site_fract_y 
_atom_site_fract_z 
_atom_site_charge 
O1          O  0.04854627  0.63910612  0.21593162    -0.85900
O2          O  0.11110206  0.57718728  0.19477568    -0.82900
C3          C  0.14769001  0.55745826  0.19101191     0.97600
O4          O  0.17834437  0.56428811  0.21725863    -0.83000
O5          O  0.20439962  0.64973568  0.19816357    -0.85600
C6          C  0.20060661  0.69123981  0.19292059     1.02100
O7          O  0.17710575  0.71410690  0.21760679    -0.78400
O8          O  0.09213668  0.69273515  0.19494911    -0.78600
C9          C  0.05792697  0.66925252  0.18991447     1.02100
O10         O  0.06697671  0.62154419  0.30152781    -0.85900
O11         O  0.12160533  0.55244611  0.28051919    -0.82900
C12         C  0.15115862  0.55636405  0.30825632     0.97600
O13         O  0.17968214  0.58701394  0.30509919    -0.83000
O14         O  0.21367260  0.67014165  0.28539859    -0.85600
C15         C  0.19405819  0.69709162  0.30944558     1.02100
O16         O  0.15342362  0.70538229  0.30398444    -0.78400
O17         O  0.06618242  0.69189891  0.28253022    -0.78500
C18         C  0.05278291  0.66061749  0.30588963     1.02000
Cr19       Cr  0.09048547  0.60042897  0.24831706     1.93700
Cr20       Cr  0.18993527  0.61927104  0.25147614     1.93200
Cr21       Cr  0.12302699  0.69672390  0.24982951     1.39100
O22         O  0.13458359  0.63895263  0.25009656    -1.23600
O23         O  0.35297271  0.93751936  0.03191216    -0.85900
O24         O  0.40865893  0.87013122  0.05697904    -0.82900
C25         C  0.42390106  0.83136575  0.06190449     0.97600
O26         O  0.41504861  0.80077840  0.03583265    -0.83000
O27         O  0.32826575  0.78139502  0.05294910    -0.85600
C28         C  0.28747862  0.78842962  0.05843029     1.02100
O29         O  0.26706231  0.81552203  0.03491993    -0.78400
O30         O  0.29709249  0.89953232  0.05612835    -0.78600
C31         C  0.32288567  0.93241954  0.05878968     1.02100
O32         O  0.37130037  0.91338755  0.44556367    -0.85900
O33         O  0.43681483  0.85575437  0.47178302    -0.82900
C34         C  0.43158724  0.82595741  0.44448699     0.97600
O35         O  0.39835763  0.80071175  0.44651877    -0.83000
O36         O  0.31371852  0.77243236  0.46353163    -0.85600
C37         C  0.28735533  0.79399708  0.44023791     1.02100
O38         O  0.28119674  0.83507031  0.44589785    -0.78400
O39         O  0.30201185  0.92152192  0.46504567    -0.78500
C40         C  0.33325567  0.92971182  0.43971931     1.02000
Cr41       Cr  0.38777865  0.89109467  0.00215116     1.93700
Cr42       Cr  0.36455939  0.79300044  0.49913744     1.93200
Cr43       Cr  0.29242114  0.86593282  0.49932655     1.39100
O44         O  0.34880262  0.84980838  0.49969903    -1.23600
O45         O  0.86162872  0.55074308  0.47392393    -0.85900
O46         O  0.91179646  0.61985971  0.44419650    -0.82900
C47         C  0.92510694  0.65878817  0.43685867     0.97600
O48         O  0.91647401  0.69033741  0.46204961    -0.83000
O49         O  0.82852853  0.70670171  0.44731840    -0.85600
C50         C  0.78824753  0.69670463  0.44226451     1.02100
O51         O  0.76977496  0.66840331  0.46602204    -0.78400
O52         O  0.80290057  0.58401001  0.44972361    -0.78600
C53         C  0.83115744  0.55311253  0.44699850     1.02100
O54         O  0.88259441  0.57992195  0.05212466    -0.85900
O55         O  0.94165078  0.64228549  0.02480287    -0.82900
C56         C  0.93403732  0.67142534  0.05240926     0.97600
O57         O  0.89946354  0.69489361  0.04997378    -0.83000
O58         O  0.81292243  0.71799179  0.03306631    -0.85600
C59         C  0.79000022  0.69603115  0.05897747     1.02100
O60         O  0.78715006  0.65428804  0.05576010    -0.78400
O61         O  0.81253409  0.56816649  0.03834232    -0.78500
C62         C  0.84662271  0.56104211  0.06085998     1.02000
Cr63       Cr  0.89463475  0.60123450  0.50026455     1.93700
Cr64       Cr  0.86445876  0.69908034  0.99763554     1.93200
Cr65       Cr  0.79520926  0.61957084  0.50222865     1.39100
O66         O  0.85252200  0.64140372  0.99902255    -1.23600
O67         O  0.57370011  0.87080268  0.30408486    -0.85900
O68         O  0.62765704  0.93767731  0.27578236    -0.82900
C69         C  0.65696790  0.93403683  0.30346749     0.97600
O70         O  0.68279770  0.90096040  0.30257936    -0.83000
O71         O  0.71455112  0.81662934  0.28493356    -0.85600
C72         C  0.69455040  0.78932932  0.30836406     1.02100
O73         O  0.65430449  0.78019001  0.30191132    -0.78400
O74         O  0.56747044  0.80038783  0.28593848    -0.78600
C75         C  0.55903482  0.83219431  0.31087633     1.02100
O76         O  0.54728056  0.85178598  0.22116968    -0.85900
O77         O  0.61185382  0.91000748  0.19277655    -0.82900
C78         C  0.64932436  0.92799418  0.18796771     0.97600
O79         O  0.68057535  0.92082477  0.21366744    -0.83000
O80         O  0.70558904  0.83471396  0.19724112    -0.85600
C81         C  0.69924413  0.79371742  0.19095435     1.02100
O82         O  0.67261168  0.77201529  0.21385396    -0.78400
O83         O  0.58692184  0.79748904  0.19645632    -0.78500
C84         C  0.55291893  0.82175534  0.19429169     1.02000
Cr85       Cr  0.59333445  0.88937667  0.24841911     1.93700
Cr86       Cr  0.69170651  0.86686840  0.24966823     1.93200
Cr87       Cr  0.62142499  0.79177800  0.24939825     1.39100
O88         O  0.63582436  0.84895868  0.24907357    -1.23600
O89         O  0.12650320  0.43382678  0.47262121    -0.85900
O90         O  0.07422464  0.36554061  0.44444706    -0.82900
C91         C  0.06085663  0.32641812  0.43790147     0.97600
O92         O  0.06800533  0.29597715  0.46448754    -0.83000
O93         O  0.15447079  0.27943591  0.44708057    -0.85600
C94         C  0.19487074  0.28797137  0.44164563     1.02100
O95         O  0.21504559  0.31424044  0.46626889    -0.78400
O96         O  0.18509289  0.39917103  0.44960353    -0.78600
C97         C  0.15724600  0.43030845  0.44622014     1.02100
O98         O  0.11448827  0.40817848  0.05419930    -0.85900
O99         O  0.05172659  0.34845634  0.02834270    -0.82900
C100        C  0.05865672  0.31752421  0.05435156     0.97600
O101        O  0.09328475  0.29434959  0.05181700    -0.83000
O102        O  0.17817316  0.26972595  0.03214604    -0.85600
C103        C  0.20147943  0.29129418  0.05794501     1.02100
O104        O  0.20706764  0.33264943  0.05356622    -0.78400
O105        O  0.18392992  0.41904434  0.03613490    -0.78500
C106        C  0.15097949  0.42756368  0.05936597     1.02000
Cr107      Cr  0.09276281  0.38493752  0.50030273     1.93700
Cr108      Cr  0.12599721  0.28986756  0.99852218     1.93200
Cr109      Cr  0.19194442  0.36407830  0.50221343     1.39100
O110        O  0.13973500  0.34704697  0.99947844    -1.23600
O111        O  0.41229978  0.11776612  0.30719831    -0.85900
O112        O  0.35428524  0.05304797  0.28014932    -0.82900
C113        C  0.32369357  0.05849668  0.30641516     0.97600
O114        O  0.29900250  0.09227685  0.30362582    -0.83000
O115        O  0.27369312  0.17801591  0.28344471    -0.85600
C116        C  0.29489609  0.20285859  0.30836405     1.02100
O117        O  0.33590407  0.20868559  0.30351638    -0.78400
O118        O  0.42182878  0.18682522  0.28631484    -0.78600
C119        C  0.42873913  0.15600480  0.31248585     1.02100
O120        O  0.43879619  0.13316214  0.22306807    -0.85900
O121        O  0.37244715  0.07680838  0.19642793    -0.82900
C122        C  0.33395275  0.06152611  0.19061139     0.97600
O123        O  0.30273589  0.07049707  0.21561999    -0.83000
O124        O  0.28444298  0.15765538  0.19665716    -0.85600
C125        C  0.29225017  0.19859380  0.19153321     1.02100
O126        O  0.31748745  0.21918181  0.21636900    -0.78400
O127        O  0.40184418  0.18957643  0.19808801    -0.78500
C128        C  0.43491209  0.16388373  0.19649850     1.02000
Cr129      Cr  0.39149442  0.09831967  0.25168032     1.93700
Cr130      Cr  0.29417112  0.12576501  0.24997767     1.93200
Cr131      Cr  0.36792124  0.19690691  0.25094164     1.39100
O132        O  0.35098188  0.14051759  0.25079403    -1.23600
O133        O  0.63179612  0.05251220  0.02953218    -0.85900
O134        O  0.57493059  0.11891308  0.05499336    -0.82900
C135        C  0.55838913  0.15723470  0.05959325     0.97600
O136        O  0.56705716  0.18809138  0.03382715    -0.83000
O137        O  0.65361482  0.20784379  0.05315158    -0.85600
C138        C  0.69461319  0.20124856  0.05806318     1.02100
O139        O  0.71517238  0.17585273  0.03325632    -0.78400
O140        O  0.68736729  0.09096556  0.05393050    -0.78600
C141        C  0.66158126  0.05801801  0.05661519     1.02100
O142        O  0.61426927  0.07864226  0.44436018    -0.85900
O143        O  0.55028079  0.13722918  0.47195241    -0.82900
C144        C  0.55619534  0.16727996  0.44512438     0.97600
O145        O  0.59001462  0.19181037  0.44747425    -0.83000
O146        O  0.67565122  0.21720539  0.46647599    -0.85600
C147        C  0.70095841  0.19587931  0.44214711     1.02100
O148        O  0.70649497  0.15451492  0.44730767    -0.78400
O149        O  0.68305165  0.06797828  0.46476584    -0.78500
C150        C  0.65157308  0.06033734  0.43945272     1.02000
Cr151      Cr  0.59649782  0.09850316  0.00003721     1.93700
Cr152      Cr  0.62365870  0.19721257  0.50077771     1.93200
Cr153      Cr  0.69422755  0.12345954  0.99999480     1.39100
O154        O  0.63799633  0.14009790  0.50026053    -1.23600
O155        O  0.94232931  0.34433770  0.21650584    -0.85900
O156        O  0.88072318  0.40772381  0.19594956    -0.82900
C157        C  0.84426961  0.42773576  0.19216642     0.97600
O158        O  0.81234206  0.41932052  0.21677872    -0.83000
O159        O  0.78386850  0.33455914  0.19824598    -0.85600
C160        C  0.78773087  0.29336238  0.19163411     1.02100
O161        O  0.81342527  0.26986175  0.21380421    -0.78400
O162        O  0.89897426  0.29220647  0.19230001    -0.78600
C163        C  0.93425029  0.31452387  0.18984777     1.02100
O164        O  0.92225452  0.35871980  0.30197311    -0.85900
O165        O  0.86971535  0.42998377  0.28210583    -0.82900
C166        C  0.83968178  0.42595985  0.30924597     0.97600
O167        O  0.81113049  0.39554538  0.30528560    -0.83000
O168        O  0.77720204  0.31287809  0.28574424    -0.85600
C169        C  0.79720467  0.28352938  0.30722174     1.02100
O170        O  0.83713187  0.27412884  0.29993697    -0.78400
O171        O  0.92425398  0.28944739  0.27992317    -0.78500
C172        C  0.93692471  0.31967066  0.30484110     1.02000
Cr173      Cr  0.90013229  0.38217669  0.24909303     1.93700
Cr174      Cr  0.80039640  0.36401201  0.25135751     1.93200
Cr175      Cr  0.86747616  0.28595610  0.24660168     1.39100
O176        O  0.85570812  0.34386543  0.24904907    -1.23600
C177        C  0.78380701  0.23611182  0.13655742    -0.20800
C178        C  0.76291536  0.27141562  0.15731156    -0.07400
C179        C  0.71922734  0.28332135  0.14572665     0.13500
C180        C  0.69794516  0.25976215  0.11345305    -0.20900
C181        C  0.71908915  0.22459748  0.09219334    -0.07400
C182        C  0.76284252  0.21260791  0.10432584     0.13500
C183        C  0.78810974  0.17483295  0.08433065    -0.24200
H184        H  0.81726817  0.22697184  0.14549946     0.14700
H185        H  0.66448450  0.26909190  0.10475920     0.14800
C186        C  0.69420803  0.31962818  0.16807034    -0.24200
H187        H  0.82085523  0.16934281  0.09937870     0.05000
H188        H  0.79448057  0.18244029  0.05096703     0.08200
H189        H  0.76907938  0.14336215  0.08725753     0.08200
H190        H  0.71077748  0.35218122  0.16311365     0.08200
H191        H  0.69276368  0.31211466  0.20199047     0.08200
H192        H  0.65964326  0.32274549  0.15642976     0.05000
C193        C  0.75606799  0.19514631  0.38394764    -0.20800
C194        C  0.72525221  0.21950237  0.40780982    -0.07400
C195        C  0.71855491  0.26525751  0.39788194     0.13500
C196        C  0.74231010  0.28462145  0.36478615    -0.20900
C197        C  0.77324847  0.26030990  0.34146967    -0.07400
C198        C  0.78016303  0.21480457  0.35121169     0.13500
C199        C  0.81172002  0.18616102  0.32649087    -0.24200
H200        H  0.76157180  0.16025146  0.39090391     0.14700
H201        H  0.73714794  0.31949439  0.35739390     0.14800
C202        C  0.68663385  0.29450145  0.42154323    -0.24200
H203        H  0.81077051  0.15081850  0.33675143     0.05000
H204        H  0.84622328  0.19810082  0.33070932     0.08200
H205        H  0.80268134  0.18717964  0.29288687     0.08200
H206        H  0.69692900  0.29683195  0.45475626     0.08200
H207        H  0.65254867  0.28080009  0.41915826     0.08200
H208        H  0.68572293  0.32898184  0.40895480     0.05000
C209        C  0.54182961  0.15123567  0.13462784    -0.20800
C210        C  0.52818312  0.16535437  0.09501489    -0.07400
C211        C  0.48551265  0.18409386  0.08991303     0.13500
C212        C  0.45639332  0.18522513  0.12415400    -0.20900
C213        C  0.46904788  0.16837296  0.16335828    -0.07400
C214        C  0.51321907  0.15298836  0.16900667     0.13500
C215        C  0.53104356  0.13874742  0.21102621    -0.24200
H216        H  0.57505552  0.13802108  0.13850945     0.14700
H217        H  0.42292300  0.19744771  0.11973558     0.14800
C218        C  0.46971778  0.20073334  0.04806994    -0.24200
H219        H  0.56729284  0.13229693  0.20997638     0.05000
H220        H  0.52524575  0.16547874  0.23431188     0.08200
H221        H  0.51501657  0.10740243  0.22137633     0.08200
H222        H  0.47132874  0.17342384  0.02478256     0.08200
H223        H  0.49083496  0.22885803  0.03760196     0.08200
H224        H  0.43495284  0.21284730  0.04941005     0.05000
C225        C  0.47953603  0.15609503  0.42030499    -0.20800
C226        C  0.52243823  0.17215287  0.41181131    -0.07400
C227        C  0.53260011  0.18694943  0.37100383     0.13500
C228        C  0.50027295  0.18316012  0.33962255    -0.20900
C229        C  0.45863406  0.16423769  0.34784350    -0.07400
C230        C  0.44751708  0.15195690  0.38902193     0.13500
C231        C  0.40237411  0.13471650  0.40140472    -0.24200
H232        H  0.47104924  0.14542867  0.45156612     0.14700
H233        H  0.50828349  0.19304260  0.30796086     0.14800
C234        C  0.57787151  0.20430445  0.35962383    -0.24200
H235        H  0.40543290  0.10007463  0.41324135     0.05000
H236        H  0.37803234  0.13501498  0.37550201     0.08200
H237        H  0.38864455  0.15594071  0.42665914     0.08200
H238        H  0.60335905  0.17852256  0.36619463     0.08200
H239        H  0.58525484  0.23485167  0.37784687     0.08200
H240        H  0.58006921  0.21302697  0.32598412     0.05000
C241        C  0.95089293  0.30462513  0.11449149    -0.20800
C242        C  0.96647834  0.30706613  0.15572823    -0.07400
C243        C  0.01279405  0.30671380  0.16323895     0.13500
C244        C  0.04214900  0.30757350  0.12930431    -0.20900
C245        C  0.02642441  0.30941821  0.08816932    -0.07400
C246        C  0.98035151  0.30614360  0.08053332     0.13500
C247        C  0.96223399  0.30385349  0.03670199    -0.24200
H248        H  0.91546965  0.30390070  0.10877755     0.14700
H249        H  0.07756277  0.30906421  0.13497499     0.14800
C250        C  0.03155842  0.30528355  0.20690164    -0.24200
H251        H  0.92575230  0.29889311  0.03650108     0.05000
H252        H  0.97762241  0.27546079  0.01989416     0.08200
H253        H  0.96935214  0.33523606  0.01969526     0.08200
H254        H  0.01757609  0.27638980  0.22407857     0.08200
H255        H  0.02364129  0.33649423  0.22377109     0.08200
H256        H  0.06821633  0.30177834  0.20673357     0.05000
C257        C  0.99606381  0.29056399  0.40488989    -0.20800
C258        C  0.03409593  0.31711745  0.40053747    -0.07400
C259        C  0.04327144  0.33747560  0.36163782     0.13500
C260        C  0.01164066  0.33495840  0.32988180    -0.20900
C261        C  0.97200779  0.31146847  0.33542530    -0.07400
C262        C  0.96469619  0.28753060  0.37270762     0.13500
C263        C  0.92323479  0.26092718  0.38060767    -0.24200
H264        H  0.98934599  0.27432047  0.43446916     0.14700
H265        H  0.01730716  0.35281329  0.30092014     0.14800
C266        C  0.08575263  0.36203808  0.35222261    -0.24200
H267        H  0.90514812  0.27518294  0.40764453     0.05000
H268        H  0.93227866  0.22589558  0.38780762     0.08200
H269        H  0.90052607  0.26057872  0.35350851     0.08200
H270        H  0.10120926  0.34758142  0.32385545     0.08200
H271        H  0.11073220  0.35958969  0.37747386     0.08200
H272        H  0.07834761  0.39768364  0.34616428     0.05000
C273        C  0.22707738  0.20979302  0.14578873    -0.20800
C274        C  0.26990634  0.22316269  0.15734989    -0.07400
C275        C  0.28984693  0.25966316  0.13644085     0.13500
C276        C  0.26657049  0.28115839  0.10424688    -0.20900
C277        C  0.22386860  0.26750734  0.09252890    -0.07400
C278        C  0.20353125  0.23180422  0.11415890     0.13500
C279        C  0.15630875  0.21798374  0.10572385    -0.24200
H280        H  0.21144784  0.18249411  0.16233654     0.14700
H281        H  0.28203845  0.30859473  0.08775920     0.14800
C282        C  0.33598193  0.27556691  0.14683251    -0.24200
H283        H  0.14517886  0.19136621  0.12741008     0.05000
H284        H  0.15297220  0.20481608  0.07354624     0.08200
H285        H  0.13399355  0.24697723  0.11007899     0.08200
H286        H  0.35982373  0.24763211  0.14374627     0.08200
H287        H  0.33698179  0.28898333  0.17907790     0.08200
H288        H  0.34695795  0.30266139  0.12559811     0.05000
C289        C  0.26606002  0.26802656  0.40742431    -0.20800
C290        C  0.21950902  0.26611032  0.40694989    -0.07400
C291        C  0.19813201  0.24361862  0.37351113     0.13500
C292        C  0.22388534  0.22381573  0.34220903    -0.20900
C293        C  0.27047166  0.22563128  0.34270912    -0.07400
C294        C  0.29180712  0.24831390  0.37599716     0.13500
C295        C  0.34156532  0.25189589  0.37937756    -0.24200
H296        H  0.28270775  0.28496623  0.43285347     0.14700
H297        H  0.20714621  0.20678415  0.31688417     0.14800
C298        C  0.14830814  0.24050433  0.36964665    -0.24200
H299        H  0.35204933  0.26969153  0.40812607     0.05000
H300        H  0.35486973  0.27080820  0.35237942     0.08200
H301        H  0.35649836  0.21816761  0.38044465     0.08200
H302        H  0.13362305  0.27439543  0.36902979     0.08200
H303        H  0.13452293  0.22106835  0.39609585     0.08200
H304        H  0.13793866  0.22338428  0.34049797     0.05000
C305        C  0.67332004  0.00211618  0.16281259    -0.20800
C306        C  0.65606060  0.95978653  0.15363999    -0.07400
C307        C  0.64460886  0.94898697  0.11223405     0.13500
C308        C  0.64994600  0.98111498  0.08105575    -0.20900
C309        C  0.66501992  0.02438053  0.09025808    -0.07400
C310        C  0.67718407  0.03497536  0.13174494     0.13500
C311        C  0.69184239  0.08114827  0.14396927    -0.24200
H312        H  0.68203034  0.01006237  0.19478387     0.14700
H313        H  0.64079450  0.97272359  0.04928950     0.14800
C314        C  0.62704460  0.90358542  0.10066696    -0.24200
H315        H  0.69817366  0.08376783  0.17804944     0.05000
H316        H  0.66569055  0.10570433  0.13575328     0.08200
H317        H  0.72303218  0.08971105  0.12754892     0.08200
H318        H  0.59465792  0.89767505  0.11608293     0.08200
H319        H  0.65101867  0.87753093  0.11052229     0.08200
H320        H  0.62180417  0.90031030  0.06647740     0.05000
C321        C  0.67835354  0.95695447  0.37547782    -0.20800
C322        C  0.65976508  0.96853076  0.33669317    -0.07400
C323        C  0.64148970  0.01192774  0.33148750     0.13500
C324        C  0.64061485  0.04122322  0.36547517    -0.20900
C325        C  0.65766452  0.02897920  0.40443550    -0.07400
C326        C  0.67743400  0.98657792  0.40946271     0.13500
C327        C  0.69549807  0.97149814  0.45103262    -0.24200
H328        H  0.69214922  0.92392622  0.37975080     0.14700
H329        H  0.62592432  0.07398401  0.36178847     0.14800
C330        C  0.62292935  0.02835740  0.29043687    -0.24200
H331        H  0.70778594  0.93664006  0.44980392     0.05000
H332        H  0.66907325  0.97321036  0.47507987     0.08200
H333        H  0.72365927  0.99305061  0.46044461     0.08200
H334        H  0.59222808  0.00991978  0.28237850     0.08200
H335        H  0.64800682  0.02425299  0.26542567     0.08200
H336        H  0.61395847  0.06423219  0.29169240     0.05000
C337        C  0.80686867  0.50268796  0.10243442    -0.20800
C338        C  0.84513008  0.52897224  0.09657097    -0.07400
C339        C  0.88158048  0.52295519  0.12436814     0.13500
C340        C  0.87888995  0.49065474  0.15574199    -0.20900
C341        C  0.84143555  0.46364898  0.16059955    -0.07400
C342        C  0.80465197  0.47000505  0.13397769     0.13500
C343        C  0.76400047  0.44113149  0.13741850    -0.24200
H344        H  0.77885232  0.50686735  0.08159636     0.14700
H345        H  0.90686360  0.48591984  0.17659678     0.14800
C346        C  0.92401528  0.54960623  0.12174211    -0.24200
H347        H  0.73901399  0.44950589  0.11315042     0.05000
H348        H  0.74827407  0.44584451  0.16839167     0.08200
H349        H  0.77334871  0.40560151  0.13348764     0.08200
H350        H  0.91667054  0.58566178  0.12453115     0.08200
H351        H  0.94125080  0.54261355  0.09187135     0.08200
H352        H  0.94759186  0.54106919  0.14719602     0.05000
C353        C  0.79601616  0.47211081  0.35986112    -0.20800
C354        C  0.83756799  0.45795783  0.34493833    -0.07400
C355        C  0.87634680  0.47449399  0.36466455     0.13500
C356        C  0.87242867  0.50446015  0.39808260    -0.20900
C357        C  0.83109018  0.52005473  0.41203690    -0.07400
C358        C  0.79226672  0.50317813  0.39281060     0.13500
C359        C  0.74687360  0.51642096  0.40772014    -0.24200
H360        H  0.76624090  0.45926800  0.34522440     0.14700
H361        H  0.90233449  0.51655890  0.41305969     0.14800
C362        C  0.92223846  0.45996075  0.35182295    -0.24200
H363        H  0.72031737  0.49844255  0.39058430     0.05000
H364        H  0.74169776  0.55253949  0.40269057     0.08200
H365        H  0.74347291  0.50856231  0.44143747     0.08200
H366        H  0.92919440  0.47058121  0.31931752     0.08200
H367        H  0.92513108  0.42327306  0.35463538     0.08200
H368        H  0.94833043  0.47491582  0.37191073     0.05000
C369        C  0.77689998  0.76243082  0.39597947    -0.20800
C370        C  0.76254417  0.71998377  0.40878688    -0.07400
C371        C  0.72516896  0.70099534  0.38869147     0.13500
C372        C  0.70392326  0.72451315  0.35631818    -0.20900
C373        C  0.71874508  0.76663449  0.34309346    -0.07400
C374        C  0.75564167  0.78600263  0.36371290     0.13500
C375        C  0.77236246  0.83196150  0.35297303    -0.24200
H376        H  0.80503814  0.77755322  0.41154629     0.14700
H377        H  0.67574579  0.70946115  0.34075867     0.14800
C378        C  0.70818651  0.65538436  0.39996828    -0.24200
H379        H  0.79953703  0.84268910  0.37412721     0.05000
H380        H  0.74503881  0.85653140  0.35590492     0.08200
H381        H  0.78571763  0.83239064  0.32072791     0.08200
H382        H  0.69583817  0.65525212  0.43257571     0.08200
H383        H  0.73525805  0.63069648  0.39643694     0.08200
H384        H  0.68033456  0.64488463  0.37950809     0.05000
C385        C  0.78511360  0.75946702  0.10868595    -0.20800
C386        C  0.76622806  0.72015545  0.09286993    -0.07400
C387        C  0.72479711  0.70594145  0.10878223     0.13500
C388        C  0.70397223  0.73093176  0.14027785    -0.20900
C389        C  0.72303809  0.77003199  0.15655294    -0.07400
C390        C  0.76428199  0.78455849  0.14013862     0.13500
C391        C  0.78737853  0.82577757  0.15596299    -0.24200
H392        H  0.81678736  0.77050261  0.09654769     0.14700
H393        H  0.67217157  0.71988720  0.15209064     0.14800
C394        C  0.70143738  0.66532299  0.09196203    -0.24200
H395        H  0.82019073  0.83062093  0.14094095     0.05000
H396        H  0.79293267  0.82303808  0.19014075     0.08200
H397        H  0.76709495  0.85570988  0.14891150     0.08200
H398        H  0.72103764  0.63495249  0.09903920     0.08200
H399        H  0.69685160  0.66861263  0.05768867     0.08200
H400        H  0.66818230  0.66087490  0.10619747     0.05000
C401        C  0.33647824  0.00891260  0.08375205    -0.20800
C402        C  0.31884357  0.96643378  0.09210076    -0.07400
C403        C  0.30192252  0.95726158  0.13241641     0.13500
C404        C  0.30570306  0.98986419  0.16367671    -0.20900
C405        C  0.32585376  0.03111170  0.15556680    -0.07400
C406        C  0.33986507  0.04143264  0.11472641     0.13500
C407        C  0.35788561  0.08648419  0.10237035    -0.24200
H408        H  0.34828436  0.01688182  0.05267045     0.14700
H409        H  0.29440885  0.98252547  0.19505568     0.14800
C410        C  0.28121471  0.91311370  0.14325823    -0.24200
H411        H  0.39286655  0.08301394  0.09214223     0.05000
H412        H  0.33801997  0.09998946  0.07602745     0.08200
H413        H  0.35643456  0.11144033  0.12777661     0.08200
H414        H  0.30494624  0.88562131  0.13728276     0.08200
H415        H  0.25090977  0.90832036  0.12419764     0.08200
H416        H  0.27137532  0.91142734  0.17662060     0.05000
C417        C  0.30064433  0.99901567  0.40983808    -0.20800
C418        C  0.32589052  0.96011859  0.40408691    -0.07400
C419        C  0.34477235  0.95147327  0.36464603     0.13500
C420        C  0.34030606  0.98309651  0.33292618    -0.20900
C421        C  0.31852847  0.02399400  0.33945638    -0.07400
C422        C  0.29694056  0.03135402  0.37810459     0.13500
C423        C  0.27140667  0.07346815  0.38682244    -0.24200
H424        H  0.28544650  0.00506446  0.43994969     0.14700
H425        H  0.35555033  0.97624487  0.30299188     0.14800
C426        C  0.36937320  0.90878363  0.35543345    -0.24200
H427        H  0.25704732  0.07345618  0.41873008     0.05000
H428        H  0.24361515  0.07672618  0.36426530     0.08200
H429        H  0.29365548  0.10279356  0.38424420     0.08200
H430        H  0.34792557  0.87981922  0.36288854     0.08200
H431        H  0.40038849  0.90701564  0.37400677     0.08200
H432        H  0.37889727  0.90630453  0.32203597     0.05000
C433        C  0.49594243  0.80366878  0.08905015    -0.20800
C434        C  0.45434961  0.82273692  0.09709469    -0.07400
C435        C  0.44364724  0.83596098  0.13811073     0.13500
C436        C  0.47581683  0.83241476  0.16951438    -0.20900
C437        C  0.51877433  0.81642992  0.16108802    -0.07400
C438        C  0.52850575  0.80056441  0.12045695     0.13500
C439        C  0.57350683  0.78235016  0.10931639    -0.24200
H440        H  0.50373106  0.79319383  0.05751815     0.14700
H441        H  0.46766355  0.84357944  0.20075301     0.14800
C442        C  0.39825064  0.85357618  0.14898926    -0.24200
H443        H  0.57546771  0.77279001  0.07588323     0.05000
H444        H  0.58057417  0.75215900  0.12821560     0.08200
H445        H  0.59937142  0.80785527  0.11523584     0.08200
H446        H  0.37260152  0.82888422  0.13985401     0.08200
H447        H  0.39198245  0.88551580  0.13257150     0.08200
H448        H  0.39485561  0.85992110  0.18298925     0.05000
C449        C  0.50739808  0.84034897  0.41810087    -0.20800
C450        C  0.46532700  0.82149394  0.41097740    -0.07400
C451        C  0.45611754  0.80224452  0.37147878     0.13500
C452        C  0.48847369  0.80410424  0.34000274    -0.20900
C453        C  0.52924105  0.82534844  0.34668308    -0.07400
C454        C  0.53932341  0.84274300  0.38650682     0.13500
C455        C  0.58381791  0.86348673  0.39604273    -0.24200
H456        H  0.51513998  0.85432972  0.44843447     0.14700
H457        H  0.48110788  0.79079220  0.30932004     0.14800
C458        C  0.41190404  0.78143224  0.36138174    -0.24200
H459        H  0.58689040  0.87275155  0.42948596     0.05000
H460        H  0.58848669  0.89431968  0.37746483     0.08200
H461        H  0.61071775  0.83949083  0.38868540     0.08200
H462        H  0.38498611  0.80617291  0.36574917     0.08200
H463        H  0.40611455  0.75221379  0.38190527     0.08200
H464        H  0.41030507  0.76961875  0.32856683     0.05000
C465        C  0.18554372  0.46052145  0.12235403    -0.20800
C466        C  0.15340266  0.46278280  0.09084955    -0.07400
C467        C  0.12197567  0.49755947  0.09082761     0.13500
C468        C  0.12250444  0.52850481  0.12317723    -0.20900
C469        C  0.15310902  0.52549077  0.15616151    -0.07400
C470        C  0.18560038  0.49123062  0.15547554     0.13500
C471        C  0.21920009  0.48546587  0.18993379    -0.24200
H472        H  0.20948683  0.43357709  0.12188424     0.14700
H473        H  0.09792677  0.55481857  0.12299251     0.14800
C474        C  0.08790193  0.50260184  0.05652884    -0.24200
H475        H  0.24081998  0.45606497  0.18458479     0.05000
H476        H  0.20200467  0.48047613  0.22020589     0.08200
H477        H  0.24092730  0.51524041  0.19165119     0.08200
H478        H  0.06463854  0.47399873  0.05675775     0.08200
H479        H  0.10473465  0.50455380  0.02579860     0.08200
H480        H  0.06778316  0.53332295  0.06036813     0.05000
C481        C  0.19364829  0.51372932  0.36246420    -0.20800
C482        C  0.15264654  0.52394314  0.34362446    -0.07400
C483        C  0.11373351  0.50315821  0.35928819     0.13500
C484        C  0.11708190  0.47317276  0.39267884    -0.20900
C485        C  0.15797420  0.46220586  0.41077521    -0.07400
C486        C  0.19683283  0.48286319  0.39560225     0.13500
C487        C  0.24132411  0.47370624  0.41513197    -0.24200
H488        H  0.22346160  0.52964660  0.35094222     0.14700
H489        H  0.08723580  0.45759324  0.40460823     0.11600
C490        C  0.06806858  0.51292173  0.34221565    -0.24200
H491        H  0.26791390  0.49402022  0.40057425     0.05000
H492        H  0.25013732  0.43808323  0.41110346     0.08200
H493        H  0.24024702  0.48184172  0.44892618     0.08200
H494        H  0.06553262  0.50176904  0.30929844     0.08200
H495        H  0.06104687  0.54906989  0.34458301     0.08200
H496        H  0.04174602  0.49518094  0.35985614     0.05000
C497        C  0.98245858  0.68196814  0.16181521    -0.20800
C498        C  0.02786032  0.67644668  0.15399029    -0.07400
C499        C  0.04271290  0.67260774  0.11235004     0.13500
C500        C  0.01147787  0.67246914  0.07965796    -0.20900
C501        C  0.96582816  0.67717075  0.08749320    -0.07400
C502        C  0.95129973  0.68306308  0.12916189     0.13500
C503        C  0.90287030  0.68837679  0.13975949    -0.24200
H504        H  0.97125608  0.68463456  0.19386054     0.14700
H505        H  0.02269304  0.66795284  0.04780770     0.14800
C506        C  0.09118843  0.66653676  0.10249342    -0.24200
H507        H  0.89745458  0.69033972  0.17399320     0.05000
H508        H  0.88362354  0.65958600  0.12775191     0.08200
H509        H  0.88987143  0.71958044  0.12573462     0.08200
H510        H  0.10411830  0.63642882  0.11852067     0.08200
H511        H  0.11016084  0.69609847  0.11317306     0.08200
H512        H  0.09691092  0.66252992  0.06846087     0.05000
C513        C  0.97813468  0.64431536  0.33099426    -0.20800
C514        C  0.01755210  0.66808585  0.33647197    -0.07400
C515        C  0.02411337  0.69367174  0.37282211     0.13500
C516        C  0.99177880  0.69261474  0.40434950    -0.20900
C517        C  0.95367719  0.66603570  0.40016885    -0.07400
C518        C  0.94589300  0.64313047  0.36221379     0.13500
C519        C  0.90383426  0.61728972  0.35424865    -0.24200
H520        H  0.97330692  0.62524596  0.30258923     0.14700
H521        H  0.99754300  0.71038965  0.43329678     0.14800
C522        C  0.06617783  0.71979964  0.37927201    -0.24200
H523        H  0.90202834  0.60486646  0.32163532     0.05000
H524        H  0.87457490  0.63893367  0.35975789     0.08200
H525        H  0.90229871  0.58786173  0.37493315     0.08200
H526        H  0.06967609  0.74507382  0.35417817     0.08200
H527        H  0.09516789  0.69701046  0.37850371     0.08200
H528        H  0.06628179  0.73739223  0.40975872     0.05000
C529        C  0.20218853  0.75171829  0.14022558    -0.20800
C530        C  0.22314408  0.71429450  0.15773162    -0.07400
C531        C  0.26485690  0.70102870  0.14196317     0.13500
C532        C  0.28452012  0.72583035  0.10966371    -0.20900
C533        C  0.26364671  0.76344275  0.09203717    -0.07400
C534        C  0.22144536  0.77619786  0.10755244     0.13500
C535        C  0.19629196  0.81569971  0.09060766    -0.24200
H536        H  0.17003846  0.76174179  0.15203376     0.14700
H537        H  0.31663211  0.71551367  0.09805656     0.14800
C538        C  0.28965109  0.66173988  0.15976475    -0.24200
H539        H  0.16488092  0.82156015  0.10780192     0.05000
H540        H  0.18754150  0.80994176  0.05738696     0.08200
H541        H  0.21668250  0.84622931  0.09349177     0.08200
H542        H  0.27075845  0.63061450  0.15406662     0.08200
H543        H  0.29470576  0.66641475  0.19382522     0.08200
H544        H  0.32275950  0.65767348  0.14513255     0.05000
C545        C  0.19830230  0.75711628  0.36286507    -0.20800
C546        C  0.21903980  0.72087089  0.34305304    -0.07400
C547        C  0.26265127  0.70892641  0.35578280     0.13500
C548        C  0.28387775  0.73372546  0.38721108    -0.20900
C549        C  0.26319688  0.77020447  0.40646674    -0.07400
C550        C  0.21960514  0.78185350  0.39417535     0.13500
C551        C  0.19448260  0.81934003  0.41469787    -0.24200
H552        H  0.16499567  0.76651961  0.35370579     0.14700
H553        H  0.31719121  0.72465823  0.39671821     0.14800
C554        C  0.28722409  0.66985533  0.33731339    -0.24200
H555        H  0.15989582  0.82175766  0.40296639     0.05000
H556        H  0.21091099  0.85162858  0.40802037     0.08200
H557        H  0.19297814  0.81374741  0.44894138     0.08200
H558        H  0.29344165  0.67568379  0.30361130     0.08200
H559        H  0.26767748  0.63886339  0.34169818     0.08200
H560        H  0.31998184  0.66469201  0.35245136     0.05000
O561        O  0.04948190  0.63906245  0.71899578    -0.85900
O562        O  0.11123674  0.57632901  0.69966217    -0.82900
C563        C  0.14806770  0.55775371  0.69380000     0.97600
O564        O  0.18047075  0.56651248  0.71776066    -0.83000
O565        O  0.20504919  0.65139844  0.69614823    -0.85600
C566        C  0.20119051  0.69262620  0.68996300     1.02100
O567        O  0.17726577  0.71617073  0.71363345    -0.78400
O568        O  0.09237415  0.69112013  0.69344942    -0.78600
C569        C  0.05796367  0.66748316  0.69094349     1.02100
O570        O  0.07169307  0.62717020  0.80524346    -0.85900
O571        O  0.12584301  0.55644897  0.78616685    -0.82900
C572        C  0.15827626  0.56144879  0.81078456     0.97600
O573        O  0.18548701  0.59267511  0.80525640    -0.83000
O574        O  0.21555533  0.67570499  0.78273158    -0.85600
C575        C  0.19552841  0.70323874  0.80606544     1.02100
O576        O  0.15489775  0.71119801  0.80034574    -0.78400
O577        O  0.06776733  0.69538316  0.78068870    -0.78500
C578        C  0.05616032  0.66596820  0.80677007     1.02000
Cr579      Cr  0.09299428  0.60261863  0.75246584     1.93700
Cr580      Cr  0.19244177  0.62296914  0.75052124     1.93200
Cr581      Cr  0.12404646  0.69914822  0.74725523     1.39100
O582        O  0.13669453  0.64161824  0.75027019    -1.23600
O583        O  0.35409128  0.93735590  0.52954082    -0.85900
O584        O  0.41062089  0.87116373  0.55578906    -0.82900
C585        C  0.42638952  0.83271745  0.56134515     0.97600
O586        O  0.41866811  0.80176330  0.53536856    -0.83000
O587        O  0.33204841  0.78004882  0.55129573    -0.85600
C588        C  0.29103481  0.78650250  0.55598025     1.02100
O589        O  0.27088028  0.81354753  0.53235506    -0.78400
O590        O  0.29874211  0.89840967  0.55326455    -0.78600
C591        C  0.32389888  0.93179936  0.55619747     1.02100
O592        O  0.36865104  0.91381679  0.94741516    -0.85900
O593        O  0.43314736  0.85465922  0.97243210    -0.82900
C594        C  0.42703066  0.82519097  0.94495678     0.97600
O595        O  0.39317726  0.80076637  0.94703961    -0.83000
O596        O  0.30805473  0.77495265  0.96526434    -0.85600
C597        C  0.28316300  0.79771629  0.94150292     1.02100
O598        O  0.27740094  0.83860471  0.94817823    -0.78400
O599        O  0.29999840  0.92390490  0.96813893    -0.78500
C600        C  0.33095807  0.93113253  0.94221600     1.02000
Cr601      Cr  0.39014908  0.89129461  0.50060591     1.93700
Cr602      Cr  0.36003236  0.79364577  0.00029677     1.93200
Cr603      Cr  0.28947104  0.86803935  0.00199507     1.39100
O604        O  0.34553446  0.85068344  0.00155534    -1.23600
O605        O  0.86248298  0.55391089  0.96856117    -0.85900
O606        O  0.91300111  0.62394655  0.94069415    -0.82900
C607        C  0.92705918  0.66292937  0.93505391     0.97600
O608        O  0.91861530  0.69330694  0.96128396    -0.83000
O609        O  0.83021131  0.70703001  0.94555843    -0.85600
C610        C  0.78941769  0.69830484  0.94259831     1.02100
O611        O  0.77105639  0.67201275  0.96836315    -0.78400
O612        O  0.80203764  0.58828221  0.94944971    -0.78600
C613        C  0.82943447  0.55707348  0.94444483     1.02100
O614        O  0.87905648  0.58149281  0.55629824    -0.85900
O615        O  0.93967181  0.64128696  0.52676450    -0.82900
C616        C  0.93205460  0.66996048  0.55458924     0.97600
O617        O  0.89734248  0.69311177  0.55208785    -0.83000
O618        O  0.81117709  0.71619366  0.53477287    -0.85600
C619        C  0.78706750  0.69401051  0.55956649     1.02100
O620        O  0.78216639  0.65266216  0.55443096    -0.78400
O621        O  0.80999822  0.56734453  0.53992668    -0.78500
C622        C  0.84300708  0.56246056  0.56434512     1.02000
Cr623      Cr  0.89663378  0.60290417  0.99660572     1.93700
Cr624      Cr  0.86259654  0.69729613  0.49922849     1.93200
Cr625      Cr  0.79728784  0.62204999  0.00269891     1.39100
O626        O  0.85036171  0.63963614  0.50031329    -1.23600
O627        O  0.57260805  0.86942350  0.80676900    -0.85900
O628        O  0.62761516  0.93605562  0.77844217    -0.82900
C629        C  0.65865758  0.93269468  0.80452264     0.97600
O630        O  0.68438621  0.89955931  0.80273906    -0.83000
O631        O  0.71335750  0.81393249  0.78492138    -0.85600
C632        C  0.69333975  0.78720848  0.80905685     1.02100
O633        O  0.65238842  0.78007311  0.80472945    -0.78400
O634        O  0.56515216  0.79951560  0.78763359    -0.78600
C635        C  0.55651815  0.83117589  0.81263728     1.02100
O636        O  0.54660093  0.85079888  0.72348901    -0.85900
O637        O  0.61010236  0.90903795  0.69532194    -0.82900
C638        C  0.64753566  0.92628937  0.68883398     0.97600
O639        O  0.67953509  0.91881738  0.71370206    -0.83000
O640        O  0.70208433  0.83216113  0.69728106    -0.85600
C641        C  0.69625155  0.79093183  0.69229024     1.02100
O642        O  0.67140922  0.76950131  0.71711294    -0.78400
O643        O  0.58596438  0.79622045  0.69871436    -0.78500
C644        C  0.55238142  0.82106970  0.69628341     1.02000
Cr645      Cr  0.59244850  0.88824685  0.75104335     1.93700
Cr646      Cr  0.69071572  0.86477051  0.74990609     1.93200
Cr647      Cr  0.61982741  0.79054770  0.75191885     1.39100
O648        O  0.63463216  0.84762693  0.75107423    -1.23600
O649        O  0.13125079  0.43484620  0.97001251    -0.85900
O650        O  0.07717683  0.36724429  0.94399775    -0.82900
C651        C  0.06291225  0.32844352  0.93785080     0.97600
O652        O  0.07099064  0.29757413  0.96375031    -0.83000
O653        O  0.15734508  0.28127488  0.94559139    -0.85600
C654        C  0.19787444  0.28912664  0.94044838     1.02100
O655        O  0.21848578  0.31408735  0.96584750    -0.78400
O656        O  0.18916582  0.39868741  0.94756738    -0.78600
C657        C  0.16269581  0.43099997  0.94417084     1.02100
O658        O  0.10979560  0.40584749  0.55586061    -0.85900
O659        O  0.04775086  0.34615740  0.52817320    -0.82900
C660        C  0.05515477  0.31691244  0.55556657     0.97600
O661        O  0.08965130  0.29341805  0.55328553    -0.83000
O662        O  0.17456301  0.26814333  0.53318295    -0.85600
C663        C  0.19862862  0.28933057  0.55851969     1.02100
O664        O  0.20417139  0.33077118  0.55444651    -0.78400
O665        O  0.17937649  0.41754401  0.53891696    -0.78500
C666        C  0.14599665  0.42564515  0.56188948     1.02000
Cr667      Cr  0.09679909  0.38676122  0.99917909     1.93700
Cr668      Cr  0.12260957  0.28843776  0.49977525     1.93200
Cr669      Cr  0.19566478  0.36476909  0.00069651     1.39100
O670        O  0.13617473  0.34570821  0.50066804    -1.23600
O671        O  0.41243250  0.11569129  0.80572483    -0.85900
O672        O  0.35361493  0.05104061  0.78025078    -0.82900
C673        C  0.32360520  0.05759722  0.80695257     0.97600
O674        O  0.29906786  0.09138826  0.80369241    -0.83000
O675        O  0.27393189  0.17680649  0.78322210    -0.85600
C676        C  0.29563580  0.20207136  0.80744673     1.02100
O677        O  0.33663883  0.20731765  0.80231102    -0.78400
O678        O  0.42214927  0.18461540  0.78443645    -0.78600
C679        C  0.42930490  0.15378121  0.81061004     1.02100
O680        O  0.43778871  0.13050412  0.72134671    -0.85900
O681        O  0.37112866  0.07440654  0.69579698    -0.82900
C682        C  0.33250937  0.05958780  0.68989902     0.97600
O683        O  0.30159806  0.06834311  0.71540789    -0.83000
O684        O  0.28337919  0.15535181  0.69638195    -0.85600
C685        C  0.29117184  0.19621136  0.69090430     1.02100
O686        O  0.31666671  0.21694944  0.71543595    -0.78400
O687        O  0.40028038  0.18668372  0.69638690    -0.78500
C688        C  0.43336598  0.16114283  0.69474998     1.02000
Cr689      Cr  0.39077201  0.09598026  0.75075299     1.93700
Cr690      Cr  0.29362887  0.12401380  0.74980294     1.93200
Cr691      Cr  0.36762163  0.19474393  0.74955894     1.39100
O692        O  0.35046582  0.13844019  0.75003817    -1.23600
O693        O  0.63027496  0.05209769  0.52783703    -0.85900
O694        O  0.57513277  0.11886973  0.55533661    -0.82900
C695        C  0.55907676  0.15723842  0.56054046     0.97600
O696        O  0.56870490  0.18893943  0.53593563    -0.83000
O697        O  0.65589449  0.20765260  0.55371383    -0.85600
C698        C  0.69672995  0.20014569  0.55868147     1.02100
O699        O  0.71659156  0.17350166  0.53451981    -0.78400
O700        O  0.68602210  0.08887307  0.55349102    -0.78600
C701        C  0.65966161  0.05631215  0.55550716     1.02100
O702        O  0.61617975  0.07609987  0.94514081    -0.85900
O703        O  0.55121168  0.13455551  0.97045700    -0.82900
C704        C  0.55722726  0.16418605  0.94318218     0.97600
O705        O  0.59035808  0.18960173  0.94581807    -0.83000
O706        O  0.67482008  0.21706928  0.96624214    -0.85600
C707        C  0.69968875  0.19587677  0.94148707     1.02100
O708        O  0.70541983  0.15454906  0.94650941    -0.78400
O709        O  0.68513088  0.06767462  0.96581413    -0.78500
C710        C  0.65406585  0.05893063  0.94039401     1.02000
Cr711      Cr  0.59565761  0.09973409  0.49987938     1.93700
Cr712      Cr  0.62258528  0.19650601  0.99966978     1.93200
Cr713      Cr  0.69394042  0.12251950  0.50016126     1.39100
O714        O  0.63795556  0.13964844  0.99991755    -1.23600
O715        O  0.94057776  0.35099630  0.72150562    -0.85900
O716        O  0.87724009  0.41219527  0.70005410    -0.82900
C717        C  0.84022089  0.43094424  0.69570933     0.97600
O718        O  0.80792428  0.42099434  0.71927152    -0.83000
O719        O  0.78412709  0.33566600  0.69803801    -0.85600
C720        C  0.78894489  0.29454811  0.69163237     1.02100
O721        O  0.81427218  0.27166218  0.71475561    -0.78400
O722        O  0.89912134  0.29799465  0.69587236    -0.78600
C723        C  0.93356783  0.32161579  0.69407118     1.02100
O724        O  0.91698809  0.36384829  0.80692132    -0.85900
O725        O  0.86198364  0.43319668  0.78573065    -0.82900
C726        C  0.83074782  0.42730099  0.81133838     0.97600
O727        O  0.80447264  0.39507819  0.80681629    -0.83000
O728        O  0.77446389  0.31213564  0.78477888    -0.85600
C729        C  0.79502852  0.28431104  0.80743232     1.02100
O730        O  0.83556217  0.27659350  0.80164962    -0.78400
O731        O  0.92229983  0.29512463  0.78378015    -0.78500
C732        C  0.93304496  0.32530900  0.80949222     1.02000
Cr733      Cr  0.89583232  0.38696520  0.75344693     1.93700
Cr734      Cr  0.79694034  0.36463193  0.75217985     1.93200
Cr735      Cr  0.86677034  0.28966109  0.74914495     1.39100
O736        O  0.85294744  0.34693696  0.75164861    -1.23600
C737        C  0.78576537  0.23587497  0.63740658    -0.20800
C738        C  0.76500519  0.27208409  0.65698744    -0.07400
C739        C  0.72188182  0.28453840  0.64405323     0.13500
C740        C  0.70084190  0.26035497  0.61213713    -0.20900
C741        C  0.72158545  0.22407527  0.59228287    -0.07400
C742        C  0.76502312  0.21189218  0.60523092     0.13500
C743        C  0.79006288  0.17350416  0.58610296    -0.24200
H744        H  0.81885406  0.22639421  0.64723159     0.14700
H745        H  0.66776917  0.27012309  0.60259964     0.14800
C746        C  0.69700422  0.32218798  0.66454339    -0.24200
H747        H  0.82271011  0.16813805  0.60138506     0.05000
H748        H  0.79653617  0.18029582  0.55260145     0.08200
H749        H  0.77072736  0.14230267  0.58957534     0.08200
H750        H  0.71427322  0.35418395  0.65881020     0.08200
H751        H  0.69450820  0.31609086  0.69864997     0.08200
H752        H  0.66282149  0.32556350  0.65200417     0.05000
C753        C  0.75376081  0.19533488  0.88270538    -0.20800
C754        C  0.72340703  0.21964621  0.90709757    -0.07400
C755        C  0.71660472  0.26550155  0.89765361     0.13500
C756        C  0.74043936  0.28521221  0.86487482    -0.20900
C757        C  0.77102195  0.26092152  0.84120251    -0.07400
C758        C  0.77755037  0.21524754  0.85001455     0.13500
C759        C  0.80826757  0.18681270  0.82418982    -0.24200
H760        H  0.75907772  0.16029604  0.88914204     0.14700
H761        H  0.73555279  0.32023254  0.85791393     0.14800
C762        C  0.68433541  0.29439196  0.92130470    -0.24200
H763        H  0.80704535  0.15125883  0.83375226     0.05000
H764        H  0.84298796  0.19828801  0.82800587     0.08200
H765        H  0.79857481  0.18874636  0.79077637     0.08200
H766        H  0.69446932  0.29676368  0.95455427     0.08200
H767        H  0.65038831  0.28036301  0.91877028     0.08200
H768        H  0.68312561  0.32888833  0.90877406     0.05000
C769        C  0.54219470  0.15691531  0.63557650    -0.20800
C770        C  0.52748466  0.16424513  0.59475225    -0.07400
C771        C  0.48242114  0.17411751  0.58718903     0.13500
C772        C  0.45274190  0.17546459  0.62086429    -0.20900
C773        C  0.46702157  0.16598493  0.66163079    -0.07400
C774        C  0.51262136  0.15769424  0.66922343     0.13500
C775        C  0.53067363  0.15027817  0.71261369    -0.24200
H776        H  0.57693544  0.14956001  0.64098354     0.14700
H777        H  0.41783808  0.18146361  0.61502642     0.14800
C778        C  0.46509265  0.18013601  0.54345933    -0.24200
H779        H  0.56742677  0.14800965  0.71275150     0.05000
H780        H  0.52109833  0.17861255  0.73288018     0.08200
H781        H  0.51787562  0.11865416  0.72582414     0.08200
H782        H  0.47138185  0.14932068  0.52533159     0.08200
H783        H  0.48194733  0.20867326  0.52820428     0.08200
H784        H  0.42884193  0.18662860  0.54304614     0.05000
C785        C  0.48102490  0.15239198  0.91802147    -0.20800
C786        C  0.52393977  0.16817262  0.90944557    -0.07400
C787        C  0.53430347  0.18254621  0.86852875     0.13500
C788        C  0.50163217  0.17973688  0.83734777    -0.20900
C789        C  0.45968616  0.16160429  0.84573387    -0.07400
C790        C  0.44888499  0.14874968  0.88686570     0.13500
C791        C  0.40389730  0.13137130  0.89936923    -0.24200
H792        H  0.47251377  0.14185407  0.94939320     0.14700
H793        H  0.50957896  0.18973551  0.80574012     0.14800
C794        C  0.58008545  0.19828896  0.85685607    -0.24200
H795        H  0.40693202  0.09637547  0.91025706     0.05000
H796        H  0.37936734  0.13260314  0.87372178     0.08200
H797        H  0.39055575  0.15190620  0.92529744     0.08200
H798        H  0.60474261  0.17178808  0.86374834     0.08200
H799        H  0.58852479  0.22884465  0.87464221     0.08200
H800        H  0.58247942  0.20640730  0.82309186     0.05000
C801        C  0.94887892  0.31206054  0.61874138    -0.20800
C802        C  0.96552731  0.31562218  0.65950843    -0.07400
C803        C  0.01197845  0.31510270  0.66604042     0.13500
C804        C  0.04048348  0.31254976  0.63145360    -0.20900
C805        C  0.02374626  0.31187013  0.59058519    -0.07400
C806        C  0.97735334  0.31082894  0.58414306     0.13500
C807        C  0.95766589  0.30800086  0.54091324    -0.24200
H808        H  0.91330645  0.31205551  0.61383670     0.14700
H809        H  0.07606973  0.31326060  0.63624070     0.14800
C810        C  0.03171112  0.31692124  0.70928154    -0.24200
H811        H  0.92100592  0.30475502  0.54188472     0.05000
H812        H  0.97116453  0.27844727  0.52442840     0.08200
H813        H  0.96546797  0.33853704  0.52285643     0.08200
H814        H  0.01814894  0.28941948  0.72862492     0.08200
H815        H  0.02397884  0.34935850  0.72412887     0.08200
H816        H  0.06836466  0.31345335  0.70861858     0.05000
C817        C  0.99512132  0.29540313  0.90794287    -0.20800
C818        C  0.03395617  0.32034385  0.90183755    -0.07400
C819        C  0.04156814  0.34128808  0.86291149     0.13500
C820        C  0.00830144  0.34018368  0.83267750    -0.20900
C821        C  0.96836372  0.31784499  0.83983881    -0.07400
C822        C  0.96193029  0.29404452  0.87732766     0.13500
C823        C  0.91984561  0.26909631  0.88693751    -0.24200
H824        H  0.98940955  0.27912464  0.93768282     0.14700
H825        H  0.01313386  0.35792576  0.80351983     0.14800
C826        C  0.08404391  0.36514012  0.85193604    -0.24200
H827        H  0.90394185  0.28366284  0.91503231     0.05000
H828        H  0.92775458  0.23359298  0.89323498     0.08200
H829        H  0.89560176  0.27026107  0.86101312     0.08200
H830        H  0.09760264  0.35113842  0.82252104     0.08200
H831        H  0.11022141  0.36143617  0.87589221     0.08200
H832        H  0.07729323  0.40116131  0.84723104     0.05000
C833        C  0.22613254  0.20620824  0.64463804    -0.20800
C834        C  0.26856924  0.22044016  0.65662880    -0.07400
C835        C  0.28808223  0.25717367  0.63576037     0.13500
C836        C  0.26427140  0.27895237  0.60408689    -0.20900
C837        C  0.22172867  0.26487856  0.59231786    -0.07400
C838        C  0.20238063  0.22789274  0.61293208     0.13500
C839        C  0.15613690  0.21188801  0.60304855    -0.24200
H840        H  0.21106352  0.17828251  0.66071310     0.14700
H841        H  0.27926336  0.30688892  0.58795833     0.14800
C842        C  0.33444578  0.27288031  0.64547827    -0.24200
H843        H  0.14567351  0.18440634  0.62407472     0.05000
H844        H  0.15454843  0.19896577  0.57065218     0.08200
H845        H  0.13221854  0.23964128  0.60701978     0.08200
H846        H  0.35813741  0.24484840  0.64191692     0.08200
H847        H  0.33609085  0.28621927  0.67772321     0.08200
H848        H  0.34514399  0.29996908  0.62411501     0.05000
C849        C  0.26854458  0.26632001  0.90723867    -0.20800
C850        C  0.22205663  0.26775978  0.90539450    -0.07400
C851        C  0.20023481  0.24905790  0.87024260     0.13500
C852        C  0.22544162  0.22850067  0.83902697    -0.20900
C853        C  0.27190282  0.22620051  0.84126615    -0.07400
C854        C  0.29378758  0.24618768  0.87574044     0.13500
C855        C  0.34354761  0.24628023  0.88034987    -0.24200
H856        H  0.28546862  0.28078412  0.93383289     0.14700
H857        H  0.20844982  0.21411340  0.81243430     0.14800
C858        C  0.15058893  0.25103104  0.86444496    -0.24200
H859        H  0.35439675  0.26206334  0.91000224     0.05000
H860        H  0.35879532  0.26539286  0.85441151     0.08200
H861        H  0.35614852  0.21163371  0.88034308     0.08200
H862        H  0.13927406  0.28613004  0.86567274     0.08200
H863        H  0.13378646  0.23117194  0.88898678     0.08200
H864        H  0.14005701  0.23722811  0.83383766     0.05000
C865        C  0.68094112  0.99475077  0.65851288    -0.20800
C866        C  0.65323521  0.95748693  0.65340460    -0.07400
C867        C  0.63047945  0.95167019  0.61518030     0.13500
C868        C  0.63574808  0.98334026  0.58354530    -0.20900
C869        C  0.66160329  0.02198388  0.58913513    -0.07400
C870        C  0.68487279  0.02748984  0.62724017     0.13500
C871        C  0.71269892  0.06809419  0.63596344    -0.24200
H872        H  0.69823645  0.99922930  0.68789896     0.14700
H873        H  0.61813684  0.97827662  0.55442681     0.14800
C874        C  0.60039284  0.91235627  0.60712607    -0.24200
H875        H  0.72762670  0.06705886  0.66766661     0.05000
H876        H  0.69192222  0.09857079  0.63396391     0.08200
H877        H  0.74020002  0.07001161  0.61308682     0.08200
H878        H  0.57086731  0.91401145  0.62766721     0.08200
H879        H  0.61844442  0.88084274  0.61290200     0.08200
H880        H  0.58815662  0.91165433  0.57441081     0.05000
C881        C  0.68265886  0.95625812  0.87577765    -0.20800
C882        C  0.66334183  0.96761988  0.83723379    -0.07400
C883        C  0.64561365  0.01120917  0.83197651     0.13500
C884        C  0.64468383  0.04044263  0.86603606    -0.20900
C885        C  0.66139828  0.02803651  0.90509744    -0.07400
C886        C  0.68187442  0.98591116  0.90981817     0.13500
C887        C  0.70065105  0.97107885  0.95116231    -0.24200
H888        H  0.69657140  0.92325744  0.87993672     0.14700
H889        H  0.62993106  0.07317904  0.86238897     0.14800
C890        C  0.62758113  0.02780120  0.79077456    -0.24200
H891        H  0.71378939  0.93654520  0.94968040     0.05000
H892        H  0.67438591  0.97202559  0.97537268     0.08200
H893        H  0.72832054  0.99331879  0.96047225     0.08200
H894        H  0.59639301  0.01019368  0.78277742     0.08200
H895        H  0.65256266  0.02278209  0.76578804     0.08200
H896        H  0.61960935  0.06392175  0.79182132     0.05000
C897        C  0.80287645  0.50490274  0.60588578    -0.20800
C898        C  0.84053746  0.53217499  0.60106279    -0.07400
C899        C  0.87583590  0.52822347  0.63042275     0.13500
C900        C  0.87325592  0.49585997  0.66163252    -0.20900
C901        C  0.83688890  0.46719154  0.66485355    -0.07400
C902        C  0.80071159  0.47230371  0.63734208     0.13500
C903        C  0.76104497  0.44198366  0.63951980    -0.24200
H904        H  0.77556911  0.50790859  0.58405752     0.14700
H905        H  0.90053423  0.49223510  0.68348131     0.14800
C906        C  0.91687210  0.55712784  0.62965132    -0.24200
H907        H  0.73644524  0.44968772  0.61471313     0.05000
H908        H  0.74428647  0.44578722  0.67012190     0.08200
H909        H  0.77187846  0.40691291  0.63547248     0.08200
H910        H  0.90732128  0.59272078  0.63124733     0.08200
H911        H  0.93646980  0.55055185  0.60102267     0.08200
H912        H  0.93913781  0.55046211  0.65659810     0.05000
C913        C  0.81116565  0.50242615  0.83815682    -0.20800
C914        C  0.82535662  0.45878091  0.84640055    -0.07400
C915        C  0.83703959  0.44667125  0.88750762     0.13500
C916        C  0.83673324  0.47919337  0.91903134    -0.20900
C917        C  0.82356265  0.52331737  0.91084669    -0.07400
C918        C  0.80889869  0.53458001  0.87010092     0.13500
C919        C  0.79161154  0.58041614  0.85980306    -0.24200
H920        H  0.80184706  0.51133763  0.80653544     0.14700
H921        H  0.84735578  0.47020427  0.95026426     0.14800
C922        C  0.85123379  0.39978748  0.89784624    -0.24200
H923        H  0.78376564  0.58395181  0.82607385     0.05000
H924        H  0.81645938  0.60605956  0.86804309     0.08200
H925        H  0.76075155  0.58682659  0.87762971     0.08200
H926        H  0.88121328  0.39092285  0.87964712     0.08200
H927        H  0.82412557  0.37615999  0.89011185     0.08200
H928        H  0.85923809  0.39592889  0.93150885     0.05000
C929        C  0.78364619  0.72589301  0.86975634    -0.20800
C930        C  0.76321152  0.71966863  0.90869374    -0.07400
C931        C  0.71931576  0.73522894  0.91445801     0.13500
C932        C  0.69743100  0.75686667  0.88131717    -0.20900
C933        C  0.71818520  0.76364325  0.84257142    -0.07400
C934        C  0.76171352  0.74719847  0.83657266     0.13500
C935        C  0.78477586  0.75040328  0.79492634    -0.24200
H936        H  0.81706263  0.71366614  0.86514585     0.14700
H937        H  0.66404133  0.76923238  0.88591094     0.14800
C938        C  0.69587047  0.73073121  0.95578201    -0.24200
H939        H  0.81724648  0.73293805  0.79519125     0.05000
H940        H  0.79117700  0.78577393  0.78693463     0.08200
H941        H  0.76391665  0.73486321  0.77032514     0.08200
H942        H  0.71585434  0.74665880  0.98079886     0.08200
H943        H  0.69071364  0.69502188  0.96329297     0.08200
H944        H  0.66279373  0.74699509  0.95529684     0.05000
C945        C  0.75276926  0.76280705  0.58849080    -0.20800
C946        C  0.76350452  0.71762750  0.59408225    -0.07400
C947        C  0.75239897  0.69690998  0.63249764     0.13500
C948        C  0.73044544  0.72168137  0.66357215    -0.20900
C949        C  0.71966861  0.76688048  0.65791711    -0.07400
C950        C  0.73120579  0.78764815  0.61963506     0.13500
C951        C  0.71987791  0.83559864  0.61052233    -0.24200
H952        H  0.76102870  0.77888118  0.55920992     0.14700
H953        H  0.72219781  0.70568234  0.69289063     0.14800
C954        C  0.76472563  0.64921118  0.64178626    -0.24200
H955        H  0.72881149  0.84529842  0.57814153     0.05000
H956        H  0.73826640  0.85797589  0.63196948     0.08200
H957        H  0.68374080  0.84068428  0.61424436     0.08200
H958        H  0.80101372  0.64455564  0.63808193     0.08200
H959        H  0.74673564  0.62641064  0.62043306     0.08200
H960        H  0.75593455  0.63956193  0.67421374     0.05000
C961        C  0.33799977  0.00793209  0.58251450    -0.20800
C962        C  0.31916667  0.96570469  0.58973531    -0.07400
C963        C  0.30020345  0.95664272  0.62928579     0.13500
C964        C  0.30290953  0.98908339  0.66089911    -0.20900
C965        C  0.32425815  0.02999862  0.65404622    -0.07400
C966        C  0.34047212  0.04021934  0.61384356     0.13500
C967        C  0.36009882  0.08492796  0.60251122    -0.24200
H968        H  0.35151653  0.01590591  0.55206598     0.14700
H969        H  0.29017193  0.98164889  0.69175401     0.14800
C970        C  0.27893044  0.91247374  0.63918539    -0.24200
H971        H  0.39562430  0.08082416  0.59433368     0.05000
H972        H  0.34226352  0.09876560  0.57505655     0.08200
H973        H  0.35733767  0.10997686  0.62773726     0.08200
H974        H  0.30321770  0.88513020  0.63474269     0.08200
H975        H  0.24985879  0.90709188  0.61851983     0.08200
H976        H  0.26709865  0.91097227  0.67197191     0.05000
C977        C  0.30410198  0.00315408  0.91327916    -0.20800
C978        C  0.32387385  0.96143693  0.90653278    -0.07400
C979        C  0.33830037  0.94993966  0.86607446     0.13500
C980        C  0.33513058  0.98139240  0.83399313    -0.20900
C981        C  0.31832723  0.02443962  0.84107616    -0.07400
C982        C  0.30126785  0.03502214  0.88109175     0.13500
C983        C  0.28155503  0.07999558  0.89070550    -0.24200
H984        H  0.29251850  0.01149493  0.94432514     0.14700
H985        H  0.34706586  0.97251392  0.80319358     0.14800
C986        C  0.35654918  0.90431831  0.85632332    -0.24200
H987        H  0.27106882  0.08258334  0.92383656     0.05000
H988        H  0.25186177  0.08568479  0.87091042     0.08200
H989        H  0.30622129  0.10661425  0.88482540     0.08200
H990        H  0.33207639  0.87850447  0.86554201     0.08200
H991        H  0.38816730  0.89876074  0.87326282     0.08200
H992        H  0.36346974  0.90019908  0.82250063     0.05000
C993        C  0.49629537  0.80225952  0.59071083    -0.20800
C994        C  0.45607346  0.82472101  0.59722048    -0.07400
C995        C  0.44580114  0.84089958  0.63740567     0.13500
C996        C  0.47702942  0.83635547  0.66943882    -0.20900
C997        C  0.51882316  0.81685706  0.66246811    -0.07400
C998        C  0.52810173  0.79843563  0.62269822     0.13500
C999        C  0.57180000  0.77643421  0.61301080    -0.24200
H1000       H  0.50371705  0.78948350  0.55985649     0.14700
H1001       H  0.46907958  0.84951259  0.70002941     0.14800
C1002       C  0.40179961  0.86257227  0.64694451    -0.24200
H1003       H  0.57341610  0.76492410  0.58010403     0.05000
H1004       H  0.57646424  0.74687709  0.63338886     0.08200
H1005       H  0.59938681  0.80030094  0.61799386     0.08200
H1006       H  0.37441134  0.83964141  0.63831050     0.08200
H1007       H  0.39833425  0.89427146  0.62942040     0.08200
H1008       H  0.39840742  0.87057998  0.68063636     0.05000
C1009       C  0.50364449  0.83643095  0.91958129    -0.20800
C1010       C  0.46074970  0.82014906  0.91141956    -0.07400
C1011       C  0.45097651  0.80337534  0.87105446     0.13500
C1012       C  0.48364054  0.80557692  0.83972755    -0.20900
C1013       C  0.52542486  0.82442402  0.84762904    -0.07400
C1014       C  0.53589487  0.83902005  0.88830016     0.13500
C1015       C  0.58121848  0.85701045  0.89904789    -0.24200
H1016       H  0.51182688  0.84831435  0.95058838     0.14700
H1017       H  0.47593914  0.79421652  0.80842941     0.14800
C1018       C  0.40604523  0.78467260  0.86016129    -0.24200
H1019       H  0.58445732  0.86428856  0.93290460     0.05000
H1020       H  0.58751060  0.88849955  0.88190822     0.08200
H1021       H  0.60695894  0.83214949  0.89069410     0.08200
H1022       H  0.37997793  0.81000929  0.86575731     0.08200
H1023       H  0.39926213  0.75471454  0.87944383     0.08200
H1024       H  0.40402504  0.77460145  0.82685718     0.05000
C1025       C  0.18620236  0.46524670  0.61905621    -0.20800
C1026       C  0.14793226  0.46046773  0.59443063    -0.07400
C1027       C  0.11161515  0.48939165  0.60102118     0.13500
C1028       C  0.11388434  0.52091753  0.63285565    -0.20900
C1029       C  0.15116063  0.52481143  0.65907209    -0.07400
C1030       C  0.18829424  0.49689501  0.65152480     0.13500
C1031       C  0.22987772  0.49955906  0.67749389    -0.24200
H1032       H  0.21417192  0.44337383  0.61349266     0.14700
H1033       H  0.08548194  0.54243769  0.63745357     0.14800
C1034       C  0.07038936  0.48830012  0.57412101    -0.24200
H1035       H  0.25523629  0.47518079  0.66704396     0.05000
H1036       H  0.22211218  0.49213507  0.71064416     0.08200
H1037       H  0.24459897  0.53333464  0.67482112     0.08200
H1038       H  0.05191249  0.45683263  0.57929804     0.08200
H1039       H  0.07958978  0.49145926  0.54069957     0.08200
H1040       H  0.04732324  0.51602406  0.58156921     0.05000
C1041       C  0.18475599  0.48894347  0.83937974    -0.20800
C1042       C  0.16402187  0.53015070  0.84610501    -0.07400
C1043       C  0.14704239  0.54009583  0.88597530     0.13500
C1044       C  0.14873820  0.50764167  0.91753363    -0.20900
C1045       C  0.16763070  0.46536251  0.91065098    -0.07400
C1046       C  0.18746389  0.45660689  0.87129315     0.13500
C1047       C  0.21055573  0.41316654  0.86213058    -0.24200
H1048       H  0.19833871  0.48184026  0.80878443     0.14700
H1049       H  0.13441494  0.51521218  0.94771137     0.11600
C1050       C  0.12615224  0.58465062  0.89499429    -0.24200
H1051       H  0.22329808  0.41198406  0.82963883     0.05000
H1052       H  0.18727792  0.38490467  0.86619524     0.08200
H1053       H  0.23931330  0.40899309  0.88344366     0.08200
H1054       H  0.09665064  0.58940700  0.87480929     0.08200
H1055       H  0.15041559  0.61168366  0.88887131     0.08200
H1056       H  0.11526405  0.58734539  0.92800209     0.05000
C1057       C  0.98234526  0.68260501  0.66347308    -0.20800
C1058       C  0.02700844  0.67280852  0.65544069    -0.07400
C1059       C  0.04075815  0.66516774  0.61398154     0.13500
C1060       C  0.00922119  0.66607269  0.58167783    -0.20900
C1061       C  0.96425264  0.67529374  0.58952265    -0.07400
C1062       C  0.95086949  0.68470484  0.63101256     0.13500
C1063       C  0.90335952  0.69534534  0.64167608    -0.24200
H1064       H  0.97203472  0.68835999  0.69542308     0.14700
H1065       H  0.01969224  0.65882664  0.55005227     0.14800
C1066       C  0.08832038  0.65408732  0.60395247    -0.24200
H1067       H  0.89866732  0.69995106  0.67578396     0.05000
H1068       H  0.88129518  0.66788409  0.63144472     0.08200
H1069       H  0.89320390  0.72671372  0.62598858     0.08200
H1070       H  0.09870667  0.62389456  0.62141544     0.08200
H1071       H  0.11009638  0.68235340  0.61278758     0.08200
H1072       H  0.09308224  0.64751104  0.57014324     0.05000
C1073       C  0.97926858  0.65690543  0.82829794    -0.20800
C1074       C  0.02101648  0.67491009  0.83679205    -0.07400
C1075       C  0.02978687  0.69475031  0.87572623     0.13500
C1076       C  0.99700817  0.69339323  0.90673270    -0.20900
C1077       C  0.95645384  0.67174196  0.89944199    -0.07400
C1078       C  0.94675294  0.65497784  0.85922291     0.13500
C1079       C  0.90243741  0.63477208  0.84877770    -0.24200
H1080       H  0.97293185  0.64223029  0.79792665     0.14700
H1081       H  0.00413691  0.70662796  0.93749897     0.14800
C1082       C  0.07429976  0.71521883  0.88499337    -0.24200
H1083       H  0.89973444  0.62624017  0.81513277     0.05000
H1084       H  0.87580500  0.65896066  0.85619322     0.08200
H1085       H  0.89743861  0.60361958  0.86677838     0.08200
H1086       H  0.08086332  0.74271170  0.86263438     0.08200
H1087       H  0.10071920  0.68967157  0.88192925     0.08200
H1088       H  0.07576998  0.72902874  0.91711831     0.05000
C1089       C  0.20070149  0.74500201  0.63060745    -0.20800
C1090       C  0.22442272  0.71428661  0.65480340    -0.07400
C1091       C  0.26947660  0.70621003  0.64571999     0.13500
C1092       C  0.28994109  0.73011942  0.61332788    -0.20900
C1093       C  0.26646768  0.76151690  0.58908900    -0.07400
C1094       C  0.22062103  0.76815393  0.59750911     0.13500
C1095       C  0.19182596  0.79917949  0.57216302    -0.24200
H1096       H  0.16595980  0.75059356  0.63750779     0.14700
H1097       H  0.32474536  0.72422415  0.60713454     0.14800
C1098       C  0.29657096  0.67365212  0.67095949    -0.24200
H1099       H  0.15693145  0.79925534  0.58318660     0.05000
H1100       H  0.19139704  0.78839004  0.53901297     0.08200
H1101       H  0.20433572  0.83384311  0.57470513     0.08200
H1102       H  0.28301332  0.63951977  0.66724995     0.08200
H1103       H  0.29588342  0.68318633  0.70444108     0.08200
H1104       H  0.33172855  0.67292740  0.66073960     0.05000
C1105       C  0.20010287  0.76634271  0.85625868    -0.20800
C1106       C  0.21976840  0.72772818  0.83959362    -0.07400
C1107       C  0.26120854  0.71352831  0.85589419     0.13500
C1108       C  0.28077564  0.73744270  0.88873843    -0.20900
C1109       C  0.26077636  0.77555903  0.90572629    -0.07400
C1110       C  0.22008901  0.79066233  0.88864022     0.13500
C1111       C  0.19672379  0.83164757  0.90469843    -0.24200
H1112       H  0.16871462  0.77784883  0.84376729     0.14700
H1113       H  0.31228570  0.72624424  0.90122681     0.14800
C1114       C  0.28502569  0.67284440  0.83982443    -0.24200
H1115       H  0.16438941  0.83707906  0.88885417     0.05000
H1116       H  0.21734993  0.86162357  0.89886066     0.08200
H1117       H  0.19018079  0.82814753  0.93864095     0.08200
H1118       H  0.29422424  0.67771048  0.80659749     0.08200
H1119       H  0.26351889  0.64305168  0.84316947     0.08200
H1120       H  0.31615281  0.66624093  0.85733916     0.05000
loop_ 
_geom_bond_atom_site_label_1 
_geom_bond_atom_site_label_2 
_geom_bond_distance 
_geom_bond_site_symmetry_2 
_ccdc_geom_bond_type 
O1          Cr19   2.005       .  S
O1            C9   1.262       .  A
O2          Cr19   1.955       .  S
O2            C3   1.259       .  A
C3            O4   1.266       .  A
C3          C469   1.482       .  S
O4          Cr20   2.013       .  S
O5          Cr20   1.986       .  S
O5            C6   1.262       .  A
C6            O7   1.266       .  A
C6          C530   1.488       .  S
O7          Cr21   2.001       .  S
O8          Cr21   1.992       .  S
O8            C9   1.260       .  A
C9          C498   1.480       .  S
O10         Cr19   1.953       .  S
O10          C18   1.257       .  A
O11         Cr19   2.004       .  S
O11          C12   1.263       .  A
C12          O13   1.264       .  A
C12         C482   1.494       .  S
O13         Cr20   1.996       .  S
O14         Cr20   2.007       .  S
O14          C15   1.265       .  A
C15          O16   1.263       .  A
C15         C546   1.495       .  S
O16         Cr21   1.978       .  S
O17         Cr21   2.016       .  S
O17          C18   1.267       .  A
C18         C514   1.464       .  S
Cr19         O22   1.764       .  S
Cr20         O22   1.772       .  S
Cr21         O22   1.769       .  S
O23         Cr41   1.990       .  S
O23          C31   1.261       .  A
O24         Cr41   1.968       .  S
O24          C25   1.261       .  A
C25          O26   1.270       .  A
C25         C434   1.476       .  S
O26        Cr602   2.023       .  S
O27        Cr602   1.976       .  S
O27          C28   1.261       .  A
C28          O29   1.267       .  A
C28         C533   1.497       .  S
O29        Cr603   2.014       .  S
O30        Cr603   1.989       .  S
O30          C31   1.260       .  A
C31         C402   1.483       .  S
O32        Cr601   1.967       .  S
O32          C40   1.262       .  A
O33        Cr601   1.994       .  S
O33          C34   1.261       .  A
C34          O35   1.259       .  A
C34         C450   1.487       .  S
O35         Cr42   1.985       .  S
O36         Cr42   2.008       .  S
O36          C37   1.267       .  A
C37          O38   1.260       .  A
C37         C549   1.487       .  S
O38         Cr43   1.976       .  S
O39         Cr43   2.018       .  S
O39          C40   1.269       .  A
C40         C418   1.477       .  S
Cr41        O592   1.967   1_554  S
Cr41        O593   1.995   1_554  S
Cr41        O604   1.760       .  S
Cr42        O586   2.019       .  S
Cr42        O587   1.977       .  S
Cr42         O44   1.770       .  S
Cr43        O589   2.004       .  S
Cr43        O590   1.994       .  S
Cr43         O44   1.768       .  S
O44        Cr601   1.763       .  S
O45         Cr63   2.000       .  S
O45          C53   1.262       .  A
O46         Cr63   1.951       .  S
O46          C47   1.258       .  A
C47          O48   1.272       .  A
C47         C517   1.475       .  S
O48        Cr624   2.027       .  S
O49        Cr624   1.974       .  S
O49          C50   1.262       .  A
C50          O51   1.270       .  A
C50         C370   1.495       .  S
O51         Cr65   2.019       .  S
O52         Cr65   2.007       .  S
O52          C53   1.263       .  A
C53         C357   1.497       .  S
O54        Cr623   1.954   1_554  S
O54          C62   1.256       .  A
O55        Cr623   2.014   1_554  S
O55          C56   1.266       .  A
C56          O57   1.261       .  A
C56         C501   1.487       .  S
O57         Cr64   1.984   1_554  S
O58         Cr64   2.009   1_554  S
O58          C59   1.266       .  A
C59          O60   1.260       .  A
C59         C386   1.490       .  S
O60        Cr625   1.981       .  S
O61        Cr625   2.031       .  S
O61          C62   1.273       .  A
C62         C338   1.495       .  S
Cr63        O614   1.948       .  S
Cr63        O615   2.003       .  S
Cr63        O626   1.764       .  S
Cr64        O608   2.015       .  S
Cr64        O609   1.975       .  S
Cr64         O66   1.769       .  S
Cr65        O620   1.986       .  S
Cr65        O621   2.027       .  S
Cr65        O626   1.771       .  S
O66        Cr623   1.764       .  S
O66        Cr625   1.769   1_556  S
O67         Cr85   1.961       .  S
O67          C75   1.260       .  A
O68         Cr85   1.986       .  S
O68          C69   1.256       .  A
C69          O70   1.262       .  A
C69         C322   1.488       .  S
O70         Cr86   1.999       .  S
O71         Cr86   2.005       .  S
O71          C72   1.265       .  A
C72          O73   1.262       .  A
C72         C373   1.494       .  S
O73         Cr87   1.982       .  S
O74         Cr87   2.023       .  S
O74          C75   1.271       .  A
C75         C453   1.473       .  S
O76         Cr85   1.991       .  S
O76          C84   1.259       .  A
O77         Cr85   1.968       .  S
O77          C78   1.263       .  A
C78          O79   1.269       .  A
C78         C306   1.470       .  S
O79         Cr86   2.015       .  S
O80         Cr86   1.983       .  S
O80          C81   1.262       .  A
C81          O82   1.269       .  A
C81         C389   1.496       .  S
O82         Cr87   2.010       .  S
O83         Cr87   1.996       .  S
O83          C84   1.260       .  A
C84         C437   1.488       .  S
Cr85         O88   1.765       .  S
Cr86         O88   1.770       .  S
Cr87         O88   1.771       .  S
O89        Cr107   1.994       .  S
O89          C97   1.261       .  A
O90        Cr107   1.963       .  S
O90          C91   1.259       .  A
C91          O92   1.267       .  A
C91         C258   1.470       .  S
O92        Cr668   2.009       .  S
O93        Cr668   1.963       .  S
O93          C94   1.258       .  A
C94          O95   1.271       .  A
C94         C290   1.491       .  S
O95        Cr109   2.014       .  S
O96        Cr109   1.997       .  S
O96          C97   1.261       .  A
C97         C485   1.485       .  S
O98        Cr667   1.950   1_554  S
O98         C106   1.256       .  A
O99        Cr667   2.012   1_554  S
O99         C100   1.264       .  A
C100        O101   1.258       .  A
C100        C245   1.477       .  S
O101       Cr108   1.978   1_554  S
O102       Cr108   1.999   1_554  S
O102        C103   1.263       .  A
C103        O104   1.261       .  A
C103        C277   1.480       .  S
O104       Cr669   1.978       .  S
O105       Cr669   2.018       .  S
O105        C106   1.269       .  A
C106        C466   1.464       .  S
Cr107       O658   1.956       .  S
Cr107       O659   2.000       .  S
Cr107       O670   1.761       .  S
Cr108       O652   2.010       .  S
Cr108       O653   1.960       .  S
Cr108       O110   1.766       .  S
Cr109       O664   1.983       .  S
Cr109       O665   2.026       .  S
Cr109       O670   1.771       .  S
O110       Cr667   1.760       .  S
O110       Cr669   1.770   1_556  S
O111       Cr129   1.974       .  S
O111        C119   1.262       .  A
O112       Cr129   1.985       .  S
O112        C113   1.261       .  A
C113        O114   1.261       .  A
C113        C421   1.489       .  S
O114       Cr130   1.995       .  S
O115       Cr130   1.999       .  S
O115        C116   1.266       .  A
C116        O117   1.259       .  A
C116        C293   1.491       .  S
O117       Cr131   1.975       .  S
O118       Cr131   2.004       .  S
O118        C119   1.265       .  A
C119        C229   1.468       .  S
O120       Cr129   1.993       .  S
O120        C128   1.260       .  A
O121       Cr129   1.970       .  S
O121        C122   1.262       .  A
C122        O123   1.266       .  A
C122        C405   1.468       .  S
O123       Cr130   2.009       .  S
O124       Cr130   1.979       .  S
O124        C125   1.262       .  A
C125        O126   1.262       .  A
C125        C274   1.481       .  S
O126       Cr131   1.995       .  S
O127       Cr131   1.992       .  S
O127        C128   1.262       .  A
C128        C213   1.486       .  S
Cr129       O132   1.760       .  S
Cr130       O132   1.770       .  S
Cr131       O132   1.768       .  S
O133       Cr151   1.982       .  S
O133        C141   1.259       .  A
O134       Cr151   1.976       .  S
O134        C135   1.263       .  A
C135        O136   1.268       .  A
C135        C210   1.477       .  S
O136       Cr712   2.018   1_554  S
O137       Cr712   1.981   1_554  S
O137        C138   1.262       .  A
C138        O139   1.265       .  A
C138        C181   1.494       .  S
O139       Cr153   2.002   1_554  S
O140       Cr153   1.995   1_554  S
O140        C141   1.261       .  A
C141        C309   1.480       .  S
O142       Cr711   1.971       .  S
O142        C150   1.262       .  A
O143       Cr711   1.984       .  S
O143        C144   1.258       .  A
C144        O145   1.261       .  A
C144        C226   1.481       .  S
O145       Cr152   1.992       .  S
O146       Cr152   2.008       .  S
O146        C147   1.266       .  A
C147        O148   1.264       .  A
C147        C194   1.501       .  S
O148       Cr713   1.983       .  S
O149       Cr713   2.019       .  S
O149        C150   1.269       .  A
C150        C325   1.477       .  S
Cr151       O702   1.976   1_554  S
Cr151       O703   1.982   1_554  S
Cr151       O714   1.758   1_554  S
Cr152       O696   2.021       .  S
Cr152       O697   1.979       .  S
Cr152       O154   1.768       .  S
Cr153       O708   1.980       .  S
Cr153       O709   2.020       .  S
Cr153       O714   1.766       .  S
O154       Cr711   1.761       .  S
O154       Cr713   1.768       .  S
O155       Cr173   2.002       .  S
O155        C163   1.261       .  A
O156       Cr173   1.955       .  S
O156        C157   1.259       .  A
C157        O158   1.271       .  A
C157        C341   1.480       .  S
O158       Cr174   2.028       .  S
O159       Cr174   1.981       .  S
O159        C160   1.260       .  A
C160        O161   1.265       .  A
C160        C178   1.484       .  S
O161       Cr175   1.998       .  S
O162       Cr175   1.992       .  S
O162        C163   1.260       .  A
C163        C242   1.481       .  S
O164       Cr173   1.951       .  S
O164        C172   1.256       .  A
O165       Cr173   2.006       .  S
O165        C166   1.262       .  A
C166        O167   1.262       .  A
C166        C354   1.495       .  S
O167       Cr174   1.997       .  S
O168       Cr174   2.015       .  S
O168        C169   1.269       .  A
C169        O170   1.259       .  A
C169        C197   1.488       .  S
O170       Cr175   1.972       .  S
O171       Cr175   2.020       .  S
O171        C172   1.268       .  A
C172        C261   1.462       .  S
Cr173       O176   1.766       .  S
Cr174       O176   1.776       .  S
Cr175       O176   1.776       .  S
C177        C178   1.402       .  A
C177        C182   1.401       .  A
C177        H184   1.084       .  S
C178        C179   1.414       .  A
C179        C180   1.407       .  A
C179        C186   1.508       .  S
C180        C181   1.410       .  A
C180        H185   1.083       .  S
C181        C182   1.422       .  A
C182        C183   1.510       .  S
C183        H187   1.111       .  S
C183        H188   1.110       .  S
C183        H189   1.110       .  S
C186        H190   1.109       .  S
C186        H191   1.111       .  S
C186        H192   1.111       .  S
C193        C194   1.409       .  A
C193        C198   1.406       .  A
C193        H200   1.083       .  S
C194        C195   1.424       .  A
C195        C196   1.406       .  A
C195        C202   1.509       .  S
C196        C197   1.402       .  A
C196        H201   1.084       .  S
C197        C198   1.416       .  A
C198        C199   1.509       .  S
C199        H203   1.111       .  S
C199        H204   1.109       .  S
C199        H205   1.110       .  S
C202        H206   1.110       .  S
C202        H207   1.110       .  S
C202        H208   1.111       .  S
C209        C210   1.399       .  A
C209        C214   1.401       .  A
C209        H216   1.085       .  S
C210        C211   1.414       .  A
C211        C212   1.407       .  A
C211        C218   1.507       .  S
C212        C213   1.406       .  A
C212        H217   1.083       .  S
C213        C214   1.421       .  A
C214        C215   1.510       .  S
C215        H219   1.111       .  S
C215        H220   1.110       .  S
C215        H221   1.109       .  S
C218        H222   1.110       .  S
C218        H223   1.110       .  S
C218        H224   1.111       .  S
C225        C226   1.408       .  A
C225        C230   1.396       .  A
C225        H232   1.082       .  S
C226        C227   1.414       .  A
C227        C228   1.404       .  A
C227        C234   1.507       .  S
C228        C229   1.404       .  A
C228        H233   1.084       .  S
C229        C230   1.410       .  A
C230        C231   1.511       .  S
C231        H235   1.110       .  S
C231        H236   1.107       .  S
C231        H237   1.111       .  S
C234        H238   1.111       .  S
C234        H239   1.110       .  S
C234        H240   1.111       .  S
C241        C242   1.404       .  A
C241        C246   1.407       .  A
C241        H248   1.084       .  S
C242        C243   1.418   1_655  A
C243        C244   1.403       .  A
C243        C250   1.509       .  S
C244        C245   1.401       .  A
C244        H249   1.084       .  S
C245        C246   1.414   1_455  A
C246        C247   1.508       .  S
C247        H251   1.111       .  S
C247        H252   1.111       .  S
C247        H253   1.109       .  S
C250        H254   1.110       .  S
C250        H255   1.108       .  S
C250        H256   1.111       .  S
C257        C258   1.404   1_655  A
C257        C262   1.401       .  A
C257        H264   1.085       .  S
C258        C259   1.415       .  A
C259        C260   1.396       .  A
C259        C266   1.509       .  S
C260        C261   1.400   1_455  A
C260        H265   1.085       .  S
C261        C262   1.411       .  A
C262        C263   1.506       .  S
C263        H267   1.110       .  S
C263        H268   1.110       .  S
C263        H269   1.105       .  S
C266        H270   1.111       .  S
C266        H271   1.107       .  S
C266        H272   1.110       .  S
C273        C274   1.402       .  A
C273        C278   1.402       .  A
C273        H280   1.084       .  S
C274        C275   1.418       .  A
C275        C276   1.403       .  A
C275        C282   1.508       .  S
C276        C277   1.403       .  A
C276        H281   1.084       .  S
C277        C278   1.416       .  A
C278        C279   1.508       .  S
C279        H283   1.111       .  S
C279        H284   1.109       .  S
C279        H285   1.109       .  S
C282        H286   1.109       .  S
C282        H287   1.109       .  S
C282        H288   1.111       .  S
C289        C290   1.406       .  A
C289        C294   1.404       .  A
C289        H296   1.084       .  S
C290        C291   1.421       .  A
C291        C292   1.402       .  A
C291        C298   1.511       .  S
C292        C293   1.407       .  A
C292        H297   1.084       .  S
C293        C294   1.419       .  A
C294        C295   1.509       .  S
C295        H299   1.111       .  S
C295        H300   1.110       .  S
C295        H301   1.109       .  S
C298        H302   1.110       .  S
C298        H303   1.110       .  S
C298        H304   1.111       .  S
C305        C306   1.405   1_545  A
C305        C310   1.406       .  A
C305        H312   1.084       .  S
C306        C307   1.408       .  A
C307        C308   1.397       .  A
C307        C314   1.509       .  S
C308        C309   1.408   1_565  A
C308        H313   1.084       .  S
C309        C310   1.415       .  A
C310        C311   1.507       .  S
C311        H315   1.111       .  S
C311        H316   1.111       .  S
C311        H317   1.109       .  S
C314        H318   1.110       .  S
C314        H319   1.110       .  S
C314        H320   1.111       .  S
C321        C322   1.406       .  A
C321        C326   1.407       .  A
C321        H328   1.084       .  S
C322        C323   1.424   1_565  A
C323        C324   1.400       .  A
C323        C330   1.511       .  S
C324        C325   1.398       .  A
C324        H329   1.085       .  S
C325        C326   1.414   1_545  A
C326        C327   1.507       .  S
C327        H331   1.111       .  S
C327        H332   1.111       .  S
C327        H333   1.110       .  S
C330        H334   1.109       .  S
C330        H335   1.110       .  S
C330        H336   1.111       .  S
C337        C338   1.411       .  A
C337        C342   1.410       .  A
C337        H344   1.083       .  S
C338        C339   1.425       .  A
C339        C340   1.398       .  A
C339        C346   1.512       .  S
C340        C341   1.400       .  A
C340        H345   1.085       .  S
C341        C342   1.411       .  A
C342        C343   1.506       .  S
C343        H347   1.111       .  S
C343        H348   1.110       .  S
C343        H349   1.110       .  S
C346        H350   1.108       .  S
C346        H351   1.110       .  S
C346        H352   1.111       .  S
C353        C354   1.408       .  A
C353        C358   1.414       .  A
C353        H360   1.084       .  S
C354        C355   1.419       .  A
C355        C356   1.404       .  A
C355        C362   1.509       .  S
C356        C357   1.406       .  A
C356        H361   1.084       .  S
C357        C358   1.416       .  A
C358        C359   1.505       .  S
C359        H363   1.111       .  S
C359        H364   1.107       .  S
C359        H365   1.110       .  S
C362        H366   1.109       .  S
C362        H367   1.108       .  S
C362        H368   1.111       .  S
C369        C370   1.407       .  A
C369        C374   1.406       .  A
C369        H376   1.084       .  S
C370        C371   1.418       .  A
C371        C372   1.408       .  A
C371        C378   1.506       .  S
C372        C373   1.407       .  A
C372        H377   1.084       .  S
C373        C374   1.418       .  A
C374        C375   1.509       .  S
C375        H379   1.111       .  S
C375        H380   1.110       .  S
C375        H381   1.109       .  S
C378        H382   1.110       .  S
C378        H383   1.109       .  S
C378        H384   1.111       .  S
C385        C386   1.405       .  A
C385        C390   1.407       .  A
C385        H392   1.084       .  S
C386        C387   1.416       .  A
C387        C388   1.407       .  A
C387        C394   1.508       .  S
C388        C389   1.407       .  A
C388        H393   1.084       .  S
C389        C390   1.420       .  A
C390        C391   1.508       .  S
C391        H395   1.111       .  S
C391        H396   1.110       .  S
C391        H397   1.110       .  S
C394        H398   1.110       .  S
C394        H399   1.111       .  S
C394        H400   1.111       .  S
C401        C402   1.407   1_545  A
C401        C406   1.396       .  A
C401        H408   1.085       .  S
C402        C403   1.416       .  A
C403        C404   1.405       .  A
C403        C410   1.506       .  S
C404        C405   1.404   1_565  A
C404        H409   1.084       .  S
C405        C406   1.410       .  A
C406        C407   1.510       .  S
C407        H411   1.110       .  S
C407        H412   1.111       .  S
C407        H413   1.108       .  S
C410        H414   1.109       .  S
C410        H415   1.108       .  S
C410        H416   1.111       .  S
C417        C418   1.406       .  A
C417        C422   1.409   1_565  A
C417        H424   1.084   1_565  S
C418        C419   1.411       .  A
C419        C420   1.396       .  A
C419        C426   1.510       .  S
C420        C421   1.408   1_565  A
C420        H425   1.084       .  S
C421        C422   1.417       .  A
C422        C423   1.507       .  S
C423        H427   1.111       .  S
C423        H428   1.110       .  S
C423        H429   1.110       .  S
C426        H430   1.110       .  S
C426        H431   1.109       .  S
C426        H432   1.111       .  S
C433        C434   1.403       .  A
C433        C438   1.408       .  A
C433        H440   1.084       .  S
C434        C435   1.411       .  A
C435        C436   1.401       .  A
C435        C442   1.509       .  S
C436        C437   1.408       .  A
C436        H441   1.084       .  S
C437        C438   1.418       .  A
C438        C439   1.507       .  S
C439        H443   1.111       .  S
C439        H444   1.110       .  S
C439        H445   1.110       .  S
C442        H446   1.111       .  S
C442        H447   1.109       .  S
C442        H448   1.111       .  S
C449        C450   1.408       .  A
C449        C454   1.400       .  A
C449        H456   1.084       .  S
C450        C451   1.419       .  A
C451        C452   1.406       .  A
C451        C458   1.508       .  S
C452        C453   1.402       .  A
C452        H457   1.084       .  S
C453        C454   1.412       .  A
C454        C455   1.511       .  S
C455        H459   1.111       .  S
C455        H460   1.109       .  S
C455        H461   1.111       .  S
C458        H462   1.109       .  S
C458        H463   1.110       .  S
C458        H464   1.111       .  S
C465        C466   1.400       .  A
C465        C470   1.406       .  A
C465        H472   1.084       .  S
C466        C467   1.410       .  A
C467        C468   1.392       .  A
C467        C474   1.511       .  S
C468        C469   1.405       .  A
C468        H473   1.083       .  S
C469        C470   1.421       .  A
C470        C471   1.507       .  S
C471        H475   1.111       .  S
C471        H476   1.111       .  S
C471        H477   1.110       .  S
C474        H478   1.109       .  S
C474        H479   1.110       .  S
C474        H480   1.111       .  S
C481        C482   1.409       .  A
C481        C486   1.412       .  A
C481        H488   1.084       .  S
C482        C483   1.422       .  A
C483        C484   1.401       .  A
C483        C490   1.510       .  S
C484        C485   1.401       .  A
C484        H489   1.085       .  S
C485        C486   1.413       .  A
C486        C487   1.505       .  S
C487        H491   1.111       .  S
C487        H492   1.110       .  S
C487        H493   1.111       .  S
C490        H494   1.109       .  S
C490        H495   1.108       .  S
C490        H496   1.111       .  S
C497        C498   1.403   1_655  A
C497        C502   1.406       .  A
C497        H504   1.084       .  S
C498        C499   1.413       .  A
C499        C500   1.408       .  A
C499        C506   1.508       .  S
C500        C501   1.407   1_455  A
C500        H505   1.084       .  S
C501        C502   1.417       .  A
C502        C503   1.509       .  S
C503        H507   1.111       .  S
C503        H508   1.110       .  S
C503        H509   1.110       .  S
C506        H510   1.110       .  S
C506        H511   1.110       .  S
C506        H512   1.111       .  S
C513        C514   1.398   1_655  A
C513        C518   1.397       .  A
C513        H520   1.085       .  S
C514        C515   1.409       .  A
C515        C516   1.406   1_455  A
C515        C522   1.506       .  S
C516        C517   1.406       .  A
C516        H521   1.084       .  S
C517        C518   1.417       .  A
C518        C519   1.509       .  S
C519        H523   1.111       .  S
C519        H524   1.110       .  S
C519        H525   1.105       .  S
C522        H526   1.110       .  S
C522        H527   1.111       .  S
C522        H528   1.111       .  S
C529        C530   1.405       .  A
C529        C534   1.405       .  A
C529        H536   1.084       .  S
C530        C531   1.414       .  A
C531        C532   1.406       .  A
C531        C538   1.508       .  S
C532        C533   1.410       .  A
C532        H537   1.083       .  S
C533        C534   1.420       .  A
C534        C535   1.508       .  S
C535        H539   1.111       .  S
C535        H540   1.110       .  S
C535        H541   1.108       .  S
C538        H542   1.110       .  S
C538        H543   1.111       .  S
C538        H544   1.111       .  S
C545        C546   1.407       .  A
C545        C550   1.404       .  A
C545        H552   1.084       .  S
C546        C547   1.423       .  A
C547        C548   1.406       .  A
C547        C554   1.509       .  S
C548        C549   1.404       .  A
C548        H553   1.084       .  S
C549        C550   1.416       .  A
C550        C551   1.508       .  S
C551        H555   1.111       .  S
C551        H556   1.110       .  S
C551        H557   1.111       .  S
C554        H558   1.110       .  S
C554        H559   1.111       .  S
C554        H560   1.111       .  S
O561       Cr579   2.016       .  S
O561        C569   1.265       .  A
O562       Cr579   1.947       .  S
O562        C563   1.258       .  A
C563        O564   1.270       .  A
C563       C1029   1.492       .  S
O564       Cr580   2.026       .  S
O565       Cr580   1.977       .  S
O565        C566   1.259       .  A
C566        O567   1.264       .  A
C566       C1090   1.478       .  S
O567       Cr581   2.001       .  S
O568       Cr581   1.984       .  S
O568        C569   1.260       .  A
C569       C1058   1.479       .  S
O570       Cr579   1.955       .  S
O570        C578   1.256       .  A
O571       Cr579   2.015       .  S
O571        C572   1.265       .  A
C572        O573   1.259       .  A
C572       C1042   1.480       .  S
O573       Cr580   1.986       .  S
O574       Cr580   2.015       .  S
O574        C575   1.269       .  A
C575        O576   1.262       .  A
C575       C1106   1.493       .  S
O576       Cr581   1.971       .  S
O577       Cr581   2.012       .  S
O577        C578   1.265       .  A
C578       C1074   1.458       .  S
Cr579       O582   1.765       .  S
Cr580       O582   1.772       .  S
Cr581       O582   1.771       .  S
O583       Cr601   1.990       .  S
O583        C591   1.261       .  A
O584       Cr601   1.966       .  S
O584        C585   1.261       .  A
C585        O586   1.269       .  A
C585        C994   1.475       .  S
O587        C588   1.262       .  A
C588        O589   1.264       .  A
C588       C1093   1.496       .  S
O590        C591   1.261       .  A
C591        C962   1.488       .  S
O592        C600   1.261       .  A
O593        C594   1.262       .  A
C594        O595   1.259       .  A
C594       C1010   1.489       .  S
O595       Cr602   1.990   1_556  S
O596       Cr602   2.007   1_556  S
O596        C597   1.268       .  A
C597        O598   1.258       .  A
C597       C1109   1.487       .  S
O598       Cr603   1.971   1_556  S
O599       Cr603   2.022   1_556  S
O599        C600   1.269       .  A
C600        C978   1.476       .  S
Cr602       O604   1.768       .  S
Cr603       O604   1.770       .  S
O605       Cr623   2.008       .  S
O605        C613   1.264       .  A
O606       Cr623   1.963       .  S
O606        C607   1.258       .  A
C607        O608   1.267       .  A
C607       C1077   1.470       .  S
O609        C610   1.262       .  A
C610        O611   1.270       .  A
C610        C930   1.487       .  S
O611       Cr625   2.020   1_556  S
O612       Cr625   1.990   1_556  S
O612        C613   1.260       .  A
C613        C917   1.489       .  S
O614        C622   1.256       .  A
O615        C616   1.261       .  A
C616        O617   1.259       .  A
C616       C1061   1.489       .  S
O617       Cr624   1.994       .  S
O618       Cr624   2.008       .  S
O618        C619   1.267       .  A
C619        O620   1.261       .  A
C619        C946   1.495       .  S
O621        C622   1.274       .  A
C622        C898   1.488       .  S
Cr624       O626   1.770       .  S
O627       Cr645   1.966       .  S
O627        C635   1.261       .  A
O628       Cr645   1.989       .  S
O628        C629   1.258       .  A
C629        O630   1.263       .  A
C629        C882   1.490       .  S
O630       Cr646   1.999       .  S
O631       Cr646   2.012       .  S
O631        C632   1.268       .  A
C632        O633   1.261       .  A
C632        C933   1.487       .  S
O633       Cr647   1.980       .  S
O634       Cr647   2.027       .  S
O634        C635   1.271       .  A
C635       C1013   1.477       .  S
O636       Cr645   1.989       .  S
O636        C644   1.260       .  A
O637       Cr645   1.965       .  S
O637        C638   1.260       .  A
C638        O639   1.270       .  A
C638        C866   1.481       .  S
O639       Cr646   2.022       .  S
O640       Cr646   1.981       .  S
O640        C641   1.260       .  A
C641        O642   1.269       .  A
C641        C949   1.495       .  S
O642       Cr647   2.017       .  S
O643       Cr647   1.993       .  S
O643        C644   1.260       .  A
C644        C997   1.487       .  S
Cr645       O648   1.762       .  S
Cr646       O648   1.769       .  S
Cr647       O648   1.771       .  S
O649       Cr667   2.010       .  S
O649        C657   1.265       .  A
O650       Cr667   1.954       .  S
O650        C651   1.257       .  A
C651        O652   1.267       .  A
C651        C818   1.467       .  S
O653        C654   1.256       .  A
C654        O655   1.269       .  A
C654        C850   1.486       .  S
O655       Cr669   2.010   1_556  S
O656       Cr669   1.992   1_556  S
O656        C657   1.261       .  A
C657       C1045   1.496       .  S
O658        C666   1.258       .  A
O659        C660   1.260       .  A
C660        O661   1.259       .  A
C660        C805   1.477       .  S
O661       Cr668   1.989       .  S
O662       Cr668   1.992       .  S
O662        C663   1.261       .  A
C663        O664   1.262       .  A
C663        C837   1.481       .  S
O665        C666   1.272       .  A
C666       C1026   1.478       .  S
Cr668       O670   1.768       .  S
O671       Cr689   1.969       .  S
O671        C679   1.262       .  A
O672       Cr689   1.993       .  S
O672        C673   1.262       .  A
C673        O674   1.260       .  A
C673        C981   1.487       .  S
O674       Cr690   1.991       .  S
O675       Cr690   2.004       .  S
O675        C676   1.267       .  A
C676        O677   1.258       .  A
C676        C853   1.488       .  S
O677       Cr691   1.969       .  S
O678       Cr691   2.010       .  S
O678        C679   1.267       .  A
C679        C789   1.469       .  S
O680       Cr689   1.994       .  S
O680        C688   1.260       .  A
O681       Cr689   1.967       .  S
O681        C682   1.261       .  A
C682        O683   1.269       .  A
C682        C965   1.473       .  S
O683       Cr690   2.017       .  S
O684       Cr690   1.976       .  S
O684        C685   1.261       .  A
C685        O686   1.263       .  A
C685        C834   1.482       .  S
O686       Cr691   1.999       .  S
O687       Cr691   1.984       .  S
O687        C688   1.260       .  A
C688        C773   1.477       .  S
Cr689       O692   1.762       .  S
Cr690       O692   1.769       .  S
Cr691       O692   1.768       .  S
O693       Cr711   1.983       .  S
O693        C701   1.259       .  A
O694       Cr711   1.968       .  S
O694        C695   1.261       .  A
C695        O696   1.269       .  A
C695        C770   1.469       .  S
O697        C698   1.262       .  A
C698        O699   1.265       .  A
C698        C741   1.495       .  S
O699       Cr713   2.005       .  S
O700       Cr713   1.999       .  S
O700        C701   1.262       .  A
C701        C869   1.491       .  S
O702        C710   1.263       .  A
O703        C704   1.260       .  A
C704        O705   1.260       .  A
C704        C786   1.479       .  S
O705       Cr712   1.990       .  S
O706       Cr712   2.004       .  S
O706        C707   1.265       .  A
C707        O708   1.263       .  A
C707        C754   1.495       .  S
O709        C710   1.268       .  A
C710        C885   1.480       .  S
Cr712       O714   1.769       .  S
O715       Cr733   2.010       .  S
O715        C723   1.263       .  A
O716       Cr733   1.952       .  S
O716        C717   1.258       .  A
C717        O718   1.269       .  A
C717        C901   1.473       .  S
O718       Cr734   2.020       .  S
O719       Cr734   1.978       .  S
O719        C720   1.260       .  A
C720        O721   1.266       .  A
C720        C738   1.486       .  S
O721       Cr735   2.003       .  S
O722       Cr735   1.983       .  S
O722        C723   1.260       .  A
C723        C802   1.480       .  S
O724       Cr733   1.954       .  S
O724        C732   1.257       .  A
O725       Cr733   2.011       .  S
O725        C726   1.263       .  A
C726        O727   1.259       .  A
C726        C914   1.478       .  S
O727       Cr734   1.988       .  S
O728       Cr734   2.008       .  S
O728        C729   1.268       .  A
C729        O730   1.259       .  A
C729        C757   1.480       .  S
O730       Cr735   1.968       .  S
O731       Cr735   2.015       .  S
O731        C732   1.267       .  A
C732        C821   1.458       .  S
Cr733       O736   1.767       .  S
Cr734       O736   1.771       .  S
Cr735       O736   1.771       .  S
C737        C738   1.403       .  A
C737        C742   1.404       .  A
C737        H744   1.084       .  S
C738        C739   1.415       .  A
C739        C740   1.405       .  A
C739        C746   1.508       .  S
C740        C741   1.409       .  A
C740        H745   1.083       .  S
C741        C742   1.422       .  A
C742        C743   1.509       .  S
C743        H747   1.111       .  S
C743        H748   1.110       .  S
C743        H749   1.109       .  S
C746        H750   1.108       .  S
C746        H751   1.110       .  S
C746        H752   1.111       .  S
C753        C754   1.409       .  A
C753        C758   1.404       .  A
C753        H760   1.084       .  S
C754        C755   1.424       .  A
C755        C756   1.404       .  A
C755        C762   1.509       .  S
C756        C757   1.400       .  A
C756        H761   1.084       .  S
C757        C758   1.413       .  A
C758        C759   1.508       .  S
C759        H763   1.111       .  S
C759        H764   1.109       .  S
C759        H765   1.111       .  S
C762        H766   1.110       .  S
C762        H767   1.110       .  S
C762        H768   1.111       .  S
C769        C770   1.398       .  A
C769        C774   1.401       .  A
C769        H776   1.085       .  S
C770        C771   1.412       .  A
C771        C772   1.404       .  A
C771        C778   1.505       .  S
C772        C773   1.403       .  A
C772        H777   1.084       .  S
C773        C774   1.419       .  A
C774        C775   1.508       .  S
C775        H779   1.111       .  S
C775        H780   1.109       .  S
C775        H781   1.109       .  S
C778        H782   1.109       .  S
C778        H783   1.110       .  S
C778        H784   1.111       .  S
C785        C786   1.406       .  A
C785        C790   1.395       .  A
C785        H792   1.085       .  S
C786        C787   1.415       .  A
C787        C788   1.405       .  A
C787        C794   1.507       .  S
C788        C789   1.404       .  A
C788        H793   1.083       .  S
C789        C790   1.411       .  A
C790        C791   1.509       .  S
C791        H795   1.110       .  S
C791        H796   1.105       .  S
C791        H797   1.111       .  S
C794        H798   1.111       .  S
C794        H799   1.110       .  S
C794        H800   1.111       .  S
C801        C802   1.403       .  A
C801        C806   1.404       .  A
C801        H808   1.084       .  S
C802        C803   1.417   1_655  A
C803        C804   1.406       .  A
C803        C810   1.508       .  S
C804        C805   1.403       .  A
C804        H809   1.084       .  S
C805        C806   1.415   1_455  A
C806        C807   1.508       .  S
C807        H811   1.111       .  S
C807        H812   1.110       .  S
C807        H813   1.109       .  S
C810        H814   1.110       .  S
C810        H815   1.109       .  S
C810        H816   1.111       .  S
C817        C818   1.404   1_655  A
C817        C822   1.401       .  A
C817        H824   1.084       .  S
C818        C819   1.415       .  A
C819        C820   1.394       .  A
C819        C826   1.510       .  S
C820        C821   1.398   1_455  A
C820        H825   1.085       .  S
C821        C822   1.411       .  A
C822        C823   1.506       .  S
C823        H827   1.111       .  S
C823        H828   1.110       .  S
C823        H829   1.106       .  S
C826        H830   1.111       .  S
C826        H831   1.106       .  S
C826        H832   1.110       .  S
C833        C834   1.403       .  A
C833        C838   1.402       .  A
C833        H840   1.084       .  S
C834        C835   1.418       .  A
C835        C836   1.403       .  A
C835        C842   1.508       .  S
C836        C837   1.402       .  A
C836        H841   1.084       .  S
C837        C838   1.418       .  A
C838        C839   1.509       .  S
C839        H843   1.111       .  S
C839        H844   1.109       .  S
C839        H845   1.110       .  S
C842        H846   1.110       .  S
C842        H847   1.109       .  S
C842        H848   1.111       .  S
C849        C850   1.404       .  A
C849        C854   1.402       .  A
C849        H856   1.084       .  S
C850        C851   1.420       .  A
C851        C852   1.401       .  A
C851        C858   1.510       .  S
C852        C853   1.405       .  A
C852        H857   1.084       .  S
C853        C854   1.419       .  A
C854        C855   1.508       .  S
C855        H859   1.111       .  S
C855        H860   1.110       .  S
C855        H861   1.107       .  S
C858        H862   1.108       .  S
C858        H863   1.110       .  S
C858        H864   1.111       .  S
C865        C866   1.406       .  A
C865        C870   1.408   1_565  A
C865        H872   1.084       .  S
C866        C867   1.414       .  A
C867        C868   1.398       .  A
C867        C874   1.511       .  S
C868        C869   1.409   1_565  A
C868        H873   1.084       .  S
C869        C870   1.417       .  A
C870        C871   1.506       .  S
C871        H875   1.111       .  S
C871        H876   1.111       .  S
C871        H877   1.109       .  S
C874        H878   1.109       .  S
C874        H879   1.107       .  S
C874        H880   1.111       .  S
C881        C882   1.406       .  A
C881        C886   1.408       .  A
C881        H888   1.084       .  S
C882        C883   1.423   1_565  A
C883        C884   1.401       .  A
C883        C890   1.511       .  S
C884        C885   1.399       .  A
C884        H889   1.085       .  S
C885        C886   1.415   1_545  A
C886        C887   1.507       .  S
C887        H891   1.111       .  S
C887        H892   1.110       .  S
C887        H893   1.110       .  S
C890        H894   1.109       .  S
C890        H895   1.111       .  S
C890        H896   1.111       .  S
C897        C898   1.409       .  A
C897        C902   1.406       .  A
C897        H904   1.083       .  S
C898        C899   1.425       .  A
C899        C900   1.396       .  A
C899        C906   1.512       .  S
C900        C901   1.398       .  A
C900        H905   1.085       .  S
C901        C902   1.410       .  A
C902        C903   1.505       .  S
C903        H907   1.111       .  S
C903        H908   1.110       .  S
C903        H909   1.110       .  S
C906        H910   1.108       .  S
C906        H911   1.110       .  S
C906        H912   1.111       .  S
C913        C914   1.403       .  A
C913        C918   1.409       .  A
C913        H920   1.084       .  S
C914        C915   1.410       .  A
C915        C916   1.405       .  A
C915        C922   1.507       .  S
C916        C917   1.407       .  A
C916        H921   1.084       .  S
C917        C918   1.418       .  A
C918        C919   1.507       .  S
C919        H923   1.111       .  S
C919        H924   1.106       .  S
C919        H925   1.110       .  S
C922        H926   1.109       .  S
C922        H927   1.111       .  S
C922        H928   1.111       .  S
C929        C930   1.405       .  A
C929        C934   1.405       .  A
C929        H936   1.083       .  S
C930        C931   1.417       .  A
C931        C932   1.408       .  A
C931        C938   1.508       .  S
C932        C933   1.406       .  A
C932        H937   1.084       .  S
C933        C934   1.416       .  A
C934        C935   1.509       .  S
C935        H939   1.111       .  S
C935        H940   1.109       .  S
C935        H941   1.111       .  S
C938        H942   1.111       .  S
C938        H943   1.110       .  S
C938        H944   1.111       .  S
C945        C946   1.406       .  A
C945        C950   1.406       .  A
C945        H952   1.084       .  S
C946        C947   1.419       .  A
C947        C948   1.409       .  A
C947        C954   1.509       .  S
C948        C949   1.407       .  A
C948        H953   1.084       .  S
C949        C950   1.419       .  A
C950        C951   1.508       .  S
C951        H955   1.111       .  S
C951        H956   1.109       .  S
C951        H957   1.107       .  S
C954        H958   1.110       .  S
C954        H959   1.109       .  S
C954        H960   1.111       .  S
C961        C962   1.408   1_545  A
C961        C966   1.398       .  A
C961        H968   1.084       .  S
C962        C963   1.417       .  A
C963        C964   1.408       .  A
C963        C970   1.507       .  S
C964        C965   1.404   1_565  A
C964        H969   1.084       .  S
C965        C966   1.412       .  A
C966        C967   1.511       .  S
C967        H971   1.111       .  S
C967        H972   1.111       .  S
C967        H973   1.108       .  S
C970        H974   1.110       .  S
C970        H975   1.110       .  S
C970        H976   1.111       .  S
C977        C978   1.404   1_545  A
C977        C982   1.408       .  A
C977        H984   1.084       .  S
C978        C979   1.411       .  A
C979        C980   1.398       .  A
C979        C986   1.509       .  S
C980        C981   1.407   1_565  A
C980        H985   1.084       .  S
C981        C982   1.418       .  A
C982        C983   1.507       .  S
C983        H987   1.111       .  S
C983        H988   1.110       .  S
C983        H989   1.108       .  S
C986        H990   1.111       .  S
C986        H991   1.109       .  S
C986        H992   1.111       .  S
C993        C994   1.404       .  A
C993        C998   1.407       .  A
C993       H1000   1.084       .  S
C994        C995   1.411       .  A
C995        C996   1.399       .  A
C995       C1002   1.510       .  S
C996        C997   1.408       .  A
C996       H1001   1.084       .  S
C997        C998   1.418       .  A
C998        C999   1.507       .  S
C999       H1003   1.111       .  S
C999       H1004   1.110       .  S
C999       H1005   1.110       .  S
C1002      H1006   1.110       .  S
C1002      H1007   1.109       .  S
C1002      H1008   1.111       .  S
C1009      C1010   1.408       .  A
C1009      C1014   1.400       .  A
C1009      H1016   1.084       .  S
C1010      C1011   1.419       .  A
C1011      C1012   1.409       .  A
C1011      C1018   1.508       .  S
C1012      C1013   1.405       .  A
C1012      H1017   1.084       .  S
C1013      C1014   1.410       .  A
C1014      C1015   1.510       .  S
C1015      H1019   1.111       .  S
C1015      H1020   1.109       .  S
C1015      H1021   1.110       .  S
C1018      H1022   1.109       .  S
C1018      H1023   1.110       .  S
C1018      H1024   1.111       .  S
C1025      C1026   1.405       .  A
C1025      C1030   1.411       .  A
C1025      H1032   1.084       .  S
C1026      C1027   1.414       .  A
C1027      C1028   1.393       .  A
C1027      C1034   1.512       .  S
C1028      C1029   1.407       .  A
C1028      H1033   1.083       .  S
C1029      C1030   1.420       .  A
C1030      C1031   1.506       .  S
C1031      H1035   1.111       .  S
C1031      H1036   1.110       .  S
C1031      H1037   1.110       .  S
C1034      H1038   1.109       .  S
C1034      H1039   1.110       .  S
C1034      H1040   1.111       .  S
C1041      C1042   1.403       .  A
C1041      C1046   1.411       .  A
C1041      H1048   1.084       .  S
C1042      C1043   1.409       .  A
C1043      C1044   1.404       .  A
C1043      C1050   1.507       .  S
C1044      C1045   1.409       .  A
C1044      H1049   1.084       .  S
C1045      C1046   1.421       .  A
C1046      C1047   1.508       .  S
C1047      H1051   1.111       .  S
C1047      H1052   1.109       .  S
C1047      H1053   1.110       .  S
C1050      H1054   1.108       .  S
C1050      H1055   1.111       .  S
C1050      H1056   1.111       .  S
C1057      C1058   1.403   1_655  A
C1057      C1062   1.408       .  A
C1057      H1064   1.084       .  S
C1058      C1059   1.411       .  A
C1059      C1060   1.405       .  A
C1059      C1066   1.508       .  S
C1060      C1061   1.408   1_455  A
C1060      H1065   1.084       .  S
C1061      C1062   1.418       .  A
C1062      C1063   1.508       .  S
C1063      H1067   1.111       .  S
C1063      H1068   1.109       .  S
C1063      H1069   1.110       .  S
C1066      H1070   1.110       .  S
C1066      H1071   1.110       .  S
C1066      H1072   1.111       .  S
C1073      C1074   1.397   1_655  A
C1073      C1078   1.396       .  A
C1073      H1080   1.085       .  S
C1074      C1075   1.407       .  A
C1075      C1076   1.403   1_455  A
C1075      C1082   1.506       .  S
C1076      C1077   1.405       .  A
C1076      H1081   1.084   1_655  S
C1077      C1078   1.414       .  A
C1078      C1079   1.506       .  S
C1079      H1083   1.111       .  S
C1079      H1084   1.109       .  S
C1079      H1085   1.109       .  S
C1082      H1086   1.110       .  S
C1082      H1087   1.110       .  S
C1082      H1088   1.111       .  S
C1089      C1090   1.400       .  A
C1089      C1094   1.403       .  A
C1089      H1096   1.085       .  S
C1090      C1091   1.411       .  A
C1091      C1092   1.405       .  A
C1091      C1098   1.508       .  S
C1092      C1093   1.411       .  A
C1092      H1097   1.083       .  S
C1093      C1094   1.424       .  A
C1094      C1095   1.509       .  S
C1095      H1099   1.111       .  S
C1095      H1100   1.111       .  S
C1095      H1101   1.110       .  S
C1098      H1102   1.110       .  S
C1098      H1103   1.111       .  S
C1098      H1104   1.111       .  S
C1105      C1106   1.408       .  A
C1105      C1110   1.404       .  A
C1105      H1112   1.084       .  S
C1106      C1107   1.419       .  A
C1107      C1108   1.404       .  A
C1107      C1114   1.508       .  S
C1108      C1109   1.404       .  A
C1108      H1113   1.084       .  S
C1109      C1110   1.417       .  A
C1110      C1111   1.509       .  S
C1111      H1115   1.111       .  S
C1111      H1116   1.110       .  S
C1111      H1117   1.110       .  S
C1114      H1118   1.110       .  S
C1114      H1119   1.110       .  S
C1114      H1120   1.111       .  S
