geometry optimzed in LAMMPS
_audit_creation_date              2020-11-30 
_audit_creation_method            'lammps2cif' 
_symmetry_space_group_name_H-M    'P1' 
_symmetry_Int_Tables_number       1 
_symmetry_cell_setting            triclinic 
loop_ 
_symmetry_equiv_pos_as_xyz 
  x,y,z 
_cell_length_a                    29.41878043 
_cell_length_b                    29.37340704795924 
_cell_length_c                    24.65054227071565 
_cell_angle_alpha                 89.55353556393968 
_cell_angle_beta                  90.1570808957486 
_cell_angle_gamma                 120.18004114176645 
loop_ 
_atom_site_label 
_atom_site_type_symbol 
_atom_site_fract_x 
_atom_site_fract_y 
_atom_site_fract_z 
_atom_site_charge 
Fe1        Fe  0.59439131  0.66780920  0.40196678     1.65800
Fe2        Fe  0.48679824  0.64766342  0.47439402     1.73200
Fe3        Fe  0.49176920  0.67111294  0.33917463     1.54400
O4          O  0.55790391  0.74173735  0.32362176    -0.80400
O5          O  0.41295979  0.60298262  0.44003945    -0.78700
O6          O  0.62526940  0.73948814  0.36416175    -0.82900
O7          O  0.58137866  0.62882132  0.32824998    -0.77700
O8          O  0.46238847  0.71235218  0.37960110    -0.79500
O9          O  0.49162566  0.58050437  0.48251952    -0.82200
C10         C  0.55201363  0.62051663  0.28734385     0.98500
C11         C  0.60585298  0.76269649  0.33715909     1.06000
O12         O  0.52462569  0.66215256  0.40511489    -1.11200
O13         O  0.55248691  0.68886218  0.52343284    -0.73700
O14         O  0.62308310  0.70813870  0.47484345    -0.77100
O15         O  0.51674631  0.63320173  0.28668485    -0.77800
C16         C  0.60187041  0.70957023  0.51897682     0.97400
O17         O  0.56596784  0.59632502  0.44024469    -0.75800
O18         O  0.47965128  0.71427265  0.46799202    -0.81000
C19         C  0.39384364  0.58605131  0.39340612     1.00100
C20         C  0.46404408  0.72950372  0.42715349     1.06000
O21         O  0.42182696  0.60116450  0.35071888    -0.76600
C22         C  0.52465139  0.56700377  0.46753337     1.04300
Fe23       Fe  0.64874509  0.59768837  0.06711220     1.65800
Fe24       Fe  0.66967500  0.51007665  0.13888053     1.73200
Fe25       Fe  0.64988538  0.49543525  0.00227810     1.54400
O26         O  0.58226581  0.49544316  0.98168958    -0.80400
O27         O  0.71936470  0.48683838  0.10653033    -0.78700
O28         O  0.57570944  0.55388332  0.03449491    -0.82900
O29         O  0.68283034  0.62298842  0.99107682    -0.77700
O30         O  0.60288633  0.42299793  0.03897886    -0.79500
O31         O  0.73405980  0.58493761  0.15006841    -0.82200
C32         C  0.69979089  0.60647077  0.95327283     0.98500
C33         C  0.55695527  0.51610443  0.00099332     1.06000
O34         O  0.65627453  0.53451056  0.06949700    -1.11200
O35         O  0.62345742  0.52814802  0.18727020    -0.73700
O36         O  0.61364762  0.58816913  0.14267578    -0.77100
O37         O  0.69487246  0.56116052  0.95451363    -0.77800
C38         C  0.60794203  0.56119849  0.18505653     0.97400
O39         O  0.72150640  0.64249268  0.10046044    -0.75800
O40         O  0.60613433  0.43373685  0.12889127    -0.81000
C41         C  0.73439293  0.48185004  0.06002093     1.00100
C42         C  0.58815703  0.40505222  0.08669098     1.06000
O43         O  0.71645079  0.49027102  0.01662467    -0.76600
C44         C  0.74899980  0.63126482  0.13155763     1.04300
Fe45       Fe  0.71995704  0.73098499  0.73789950     1.65800
Fe46       Fe  0.81344487  0.83873257  0.80745623     1.73200
Fe47       Fe  0.83149197  0.82542836  0.67329632     1.54400
O48         O  0.82780775  0.75356775  0.66392559    -0.80400
O49         O  0.84288443  0.91110805  0.76934922    -0.78700
O50         O  0.75281804  0.69212312  0.70284267    -0.82900
O51         O  0.69609494  0.74437815  0.66317864    -0.77700
O52         O  0.90203984  0.85177480  0.71432650    -0.79500
O53         O  0.74232245  0.83563995  0.81686330    -0.82200
C54         C  0.71897159  0.77068553  0.62087396     0.98500
C55         C  0.79528344  0.70612269  0.67780722     1.06000
O56         O  0.78812161  0.79841895  0.73946686    -1.11200
O57         O  0.78853343  0.77390801  0.85808804    -0.73700
O58         O  0.73042475  0.70392952  0.81215571    -0.77100
O59         O  0.76828256  0.80278131  0.61967741    -0.77800
C60         C  0.75616685  0.72500367  0.85496892     0.97400
O61         O  0.68129105  0.76402329  0.77330626    -0.75800
O62         O  0.88754637  0.84611413  0.80338716    -0.81000
C63         C  0.85070776  0.92992064  0.72154213     1.00100
C64         C  0.91812940  0.85643858  0.76299548     1.06000
O65         O  0.84100118  0.90103034  0.67968716    -0.76600
C66         C  0.69513213  0.80433570  0.80206871     1.04300
Fe67       Fe  0.33227325  0.40141813  0.91404744     1.65800
Fe68       Fe  0.31127325  0.49156317  0.85062078     1.73200
Fe69       Fe  0.31918744  0.49310615  0.98741339     1.54400
O70         O  0.27675788  0.42104223  0.02974426    -0.80400
O71         O  0.37787272  0.56402381  0.86684346    -0.78700
O72         O  0.28389746  0.36270050  0.97902526    -0.82900
O73         O  0.39680193  0.43905955  0.96241903    -0.77700
O74         O  0.24922484  0.49156543  0.96978553    -0.79500
O75         O  0.35248324  0.46910925  0.79895542    -0.82200
C76         C  0.41433024  0.47737311  0.99519304     0.98500
C77         C  0.26768773  0.37444146  0.02115861     1.06000
O78         O  0.32113685  0.46183911  0.91768322    -1.11200
O79         O  0.24426618  0.42000011  0.83814734    -0.73700
O80         O  0.26786666  0.36113616  0.86468662    -0.77100
O81         O  0.38900577  0.49942961  0.01029384    -0.77800
C82         C  0.23500940  0.37291582  0.84523375     0.97400
O83         O  0.38312081  0.42773607  0.84848617    -0.75800
O84         O  0.26602638  0.51935486  0.88457217    -0.81000
C85         C  0.38741318  0.59045785  0.91072412     1.00100
C86         C  0.24131660  0.51279042  0.92849355     1.06000
O87         O  0.36374931  0.56967262  0.95540787    -0.76600
C88         C  0.37864515  0.44578778  0.80340412     1.04300
Fe89       Fe  0.39344399  0.33176518  0.59402870     1.65800
Fe90       Fe  0.49750418  0.33330579  0.65934475     1.73200
Fe91       Fe  0.49930266  0.34689095  0.52209963     1.54400
O92         O  0.43330538  0.29940237  0.47643113    -0.80400
O93         O  0.56743095  0.40207453  0.64252809    -0.78700
O94         O  0.36443370  0.28995100  0.52209753    -0.82900
O95         O  0.42124810  0.40147335  0.55347050    -0.77700
O96         O  0.51039924  0.28292966  0.53576669    -0.79500
O97         O  0.47484187  0.37642187  0.70696076    -0.82200
C98         C  0.45993902  0.42731417  0.52175992     0.98500
C99         C  0.38457373  0.28276428  0.48000015     1.06000
O100        O  0.46330410  0.33748512  0.59183084    -1.11200
O101        O  0.43102823  0.26361411  0.67969618    -0.73700
O102        O  0.36401353  0.26158983  0.63351737    -0.77100
O103        O  0.49107682  0.41161126  0.50597268    -0.77800
C104        C  0.38366336  0.24040480  0.66333906     0.97400
O105        O  0.40598918  0.37285998  0.66620974    -0.75800
O106        O  0.52583298  0.28834339  0.62476436    -0.81000
C107        C  0.59314336  0.41676936  0.59831360     1.00100
C108        C  0.52527855  0.26936226  0.57852454     1.06000
O109        O  0.57270258  0.39716660  0.55295284    -0.76600
C110        C  0.43793528  0.38672941  0.70556196     1.04300
Fe111      Fe  0.26509420  0.27658567  0.26996978     1.65800
Fe112      Fe  0.17866232  0.17736763  0.18725359     1.73200
Fe113      Fe  0.15847000  0.16782867  0.32380642     1.54400
O114        O  0.22067534  0.18722400  0.37709034    -0.80400
O115        O  0.10420790  0.16809240  0.19584012    -0.78700
O116        O  0.28911381  0.25771101  0.34142867    -0.82900
O117        O  0.22243870  0.30276033  0.31036464    -0.77700
O118        O  0.15851784  0.09976157  0.30286475    -0.79500
O119        O  0.20291777  0.24862355  0.14556818    -0.82200
C120        C  0.17925152  0.28033518  0.33632511     0.98500
C121        C  0.26813696  0.22418436  0.37933043     1.06000
O122        O  0.20105140  0.20740423  0.26036781    -1.11200
O123        O  0.25150586  0.18446581  0.17734398    -0.73700
O124        O  0.30941155  0.25244203  0.22849229    -0.77100
O125        O  0.15358937  0.23166016  0.34799228    -0.77800
C126        C  0.29751802  0.21439697  0.19647206     0.97400
O127        O  0.25534222  0.31166008  0.20173252    -0.75800
O128        O  0.14919975  0.09939546  0.21319375    -0.81000
C129        C  0.07327133  0.14952576  0.23639683     1.00100
C130        C  0.14630950  0.07587629  0.25771999     1.06000
O131        O  0.08846731  0.14343957  0.28284437    -0.76600
C132        C  0.23246246  0.29703517  0.15656030     1.04300
Fe133      Fe  0.37923617  0.05902458  0.09196650     1.65800
Fe134      Fe  0.47974712  0.15011436  0.01204386     1.73200
Fe135      Fe  0.48102686  0.16937150  0.14762148     1.54400
O136        O  0.41404326  0.17230762  0.16408032    -0.80400
O137        O  0.55628135  0.18083918  0.04234191    -0.78700
O138        O  0.34764673  0.09398143  0.13764937    -0.82900
O139        O  0.40180612  0.03397691  0.15991695    -0.77700
O140        O  0.50927420  0.23970567  0.10640818    -0.79500
O141        O  0.47700253  0.07882092  0.00271272    -0.82200
C142        C  0.42891107  0.05760595  0.20111980     0.98500
C143        C  0.36534074  0.13912523  0.15831521     1.06000
O144        O  0.44648449  0.12603543  0.08375714    -1.11200
O145        O  0.40852221  0.12313855  0.96887400    -0.73700
O146        O  0.34432824  0.07180413  0.02578784    -0.77100
O147        O  0.45850593  0.10718473  0.20206509    -0.77800
C148        C  0.35978303  0.09401368  0.98007483     0.97400
O149        O  0.40500926  0.01835580  0.04698743    -0.75800
O150        O  0.48749452  0.22468459  0.01916595    -0.81000
C151        C  0.57740717  0.18351822  0.08832424     1.00100
C152        C  0.50671297  0.25588600  0.05933924     1.06000
O153        O  0.55105889  0.17063746  0.13237092    -0.76600
C154        C  0.44579289  0.03180486  0.01886060     1.04300
Fe155      Fe  0.26692235  0.00851909  0.73160532     1.65800
Fe156      Fe  0.16122706  0.00869410  0.67419603     1.73200
Fe157      Fe  0.16544940  0.99464433  0.81049805     1.54400
O158        O  0.17021033  0.92765048  0.82147614    -0.80400
O159        O  0.13280579  0.05115660  0.71403130    -0.78700
O160        O  0.24307745  0.94179439  0.77741787    -0.82900
O161        O  0.30090543  0.05637663  0.79721786    -0.77700
O162        O  0.08831550  0.94737222  0.78109766    -0.79500
O163        O  0.22520662  0.07920805  0.65353192    -0.82200
C164        C  0.28499884  0.06054884  0.84332008     0.98500
C165        C  0.20284566  0.91363687  0.80646210     1.06000
O166        O  0.19814362  0.00395244  0.73880556    -1.11200
O167        O  0.18444789  0.96900987  0.62187675    -0.73700
O168        O  0.24692912  0.96157773  0.66418315    -0.77100
O169        O  0.23615477  0.03922262  0.85430046    -0.77800
C170        C  0.21741822  0.95333708  0.62370766     0.97400
O171        O  0.29474800  0.07588671  0.68638711    -0.75800
O172        O  0.09389601  0.93859965  0.69211940    -0.81000
C173        C  0.13891039  0.07275391  0.75999720     0.98300
C174        C  0.06746021  0.92649245  0.73580364     1.06000
O175        O  0.15833413  0.06123615  0.80057580    -0.76600
C176        C  0.27397762  0.09948488  0.66264430     1.04300
Fe177      Fe  0.32709506  0.93727248  0.41584748     1.65800
Fe178      Fe  0.33798625  0.84120757  0.48524439     1.73200
Fe179      Fe  0.31141180  0.82789408  0.35012567     1.54400
O180        O  0.24411889  0.83141806  0.33785221    -0.80400
O181        O  0.38229402  0.81358250  0.44843200    -0.78700
O182        O  0.25937824  0.90768211  0.37361361    -0.82900
O183        O  0.37112575  0.96444841  0.34529502    -0.77700
O184        O  0.26607100  0.75570588  0.38818737    -0.79500
O185        O  0.40642290  0.91218664  0.49778190    -0.82200
C186        C  0.37373160  0.94210305  0.30259366     0.98500
C187        C  0.23095396  0.86560174  0.34830700     1.06000
O188        O  0.32552501  0.86887268  0.41710453    -1.11200
O189        O  0.29582331  0.86440869  0.53353155    -0.73700
O190        O  0.28303834  0.92162322  0.48599197    -0.77100
O191        O  0.35344171  0.89257873  0.29951984    -0.77800
C192        C  0.27739641  0.89505079  0.52877154     0.97400
O193        O  0.39506498  0.97446469  0.45789804    -0.75800
O194        O  0.27112087  0.76672912  0.47765693    -0.81000
C195        C  0.39527437  0.80897528  0.40062350     1.00100
C196        C  0.25253275  0.73763035  0.43602554     1.06000
O197        O  0.37746845  0.82025798  0.35867322    -0.76600
C198        C  0.42179191  0.95998421  0.48535452     1.04300
Fe199      Fe  0.59768656  0.93797516  0.93256061     1.65800
Fe200      Fe  0.48710861  0.84242161  0.99799293     1.73200
Fe201      Fe  0.50360556  0.83087254  0.86326445     1.54400
O202        O  0.52836116  0.89577138  0.81305181    -0.80400
O203        O  0.47732019  0.76692470  0.99003294    -0.78700
O204        O  0.58760689  0.96565926  0.85810399    -0.82900
O205        O  0.63601117  0.90489431  0.89655790    -0.77700
O206        O  0.43012510  0.82471827  0.86957499    -0.79500
O207        O  0.55044478  0.86364523  0.05003757    -0.82200
C208        C  0.62188229  0.86470673  0.86744738     0.98500
C209        C  0.56139494  0.94450207  0.81549292     1.06000
O210        O  0.52971983  0.87038569  0.93133679    -1.11200
O211        O  0.49048855  0.91409023  0.00855047    -0.73700
O212        O  0.56423330  0.97626003  0.96813152    -0.77100
O213        O  0.57457029  0.83359050  0.85267932    -0.77800
C214        C  0.52176120  0.96151925  0.99358237     0.97400
O215        O  0.62181573  0.92391962  0.00688973    -0.75800
O216        O  0.41647726  0.81672027  0.95883999    -0.81000
C217        C  0.46640234  0.73856781  0.94763179     1.00100
C218        C  0.40010892  0.81364299  0.91066694     1.06000
O219        O  0.47379197  0.75807890  0.90021481    -0.76600
C220        C  0.59952529  0.89592695  0.04849765     1.04300
Fe221      Fe  0.72418448  0.99404429  0.26503193     1.65800
Fe222      Fe  0.83069168  0.99796146  0.32691889     1.73200
Fe223      Fe  0.83159058  0.01754592  0.19064486     1.54400
O224        O  0.76607341  0.97170286  0.14352969    -0.80400
O225        O  0.89986833  0.06789954  0.31190592    -0.78700
O226        O  0.69616646  0.95512612  0.19178769    -0.82900
O227        O  0.74870151  0.06498829  0.22803261    -0.77700
O228        O  0.84348053  0.95419348  0.19887720    -0.79500
O229        O  0.80679791  0.03778582  0.37781196    -0.82200
C230        C  0.78750181  0.09364109  0.19745184     0.98500
C231        C  0.71694412  0.95209049  0.14810535     1.06000
O232        O  0.79542480  0.00346799  0.26091382    -1.11200
O233        O  0.76583698  0.92687850  0.34674056    -0.73700
O234        O  0.69770330  0.92285822  0.30130643    -0.77100
O235        O  0.82069682  0.08095826  0.18061728    -0.77800
C236        C  0.71835555  0.90258716  0.33097151     0.97400
O237        O  0.73550144  0.03088589  0.33919353    -0.75800
O238        O  0.85923216  0.95577243  0.28771325    -0.81000
C239        C  0.92629992  0.08369383  0.26824947     1.00100
C240        C  0.85819025  0.93883323  0.24026280     1.06000
O241        O  0.90581676  0.06679070  0.22211444    -0.76600
C242        C  0.76767828  0.04471457  0.37827645     1.04300
Fe243      Fe  0.66223071  0.05968229  0.59510015     1.65800
Fe244      Fe  0.64662346  0.15265031  0.52506870     1.73200
Fe245      Fe  0.67961189  0.17109003  0.65862203     1.54400
O246        O  0.63991007  0.10862305  0.71236837    -0.80400
O247        O  0.71338064  0.22776045  0.52889596    -0.78700
O248        O  0.62547222  0.03611932  0.67016159    -0.82900
O249        O  0.73423083  0.09304792  0.62947611    -0.77700
O250        O  0.61337292  0.17972190  0.65255714    -0.79500
O251        O  0.68657035  0.12858422  0.47463617    -0.82200
C252        C  0.76305852  0.13609848  0.65315053     0.98500
C253        C  0.62219571  0.05941599  0.71178392     1.06000
O254        O  0.66264419  0.12765076  0.59294813    -1.11200
O255        O  0.57810394  0.08059638  0.51725563    -0.73700
O256        O  0.59025987  0.02016688  0.56064925    -0.77100
O257        O  0.74815896  0.16830219  0.66700791    -0.77800
C258        C  0.56260751  0.03353391  0.53312520     0.97400
O259        O  0.69915634  0.07052489  0.52047708    -0.75800
O260        O  0.60399738  0.18149067  0.56293374    -0.81000
C261        C  0.73329743  0.25808472  0.56955492     1.00100
C262        C  0.59390336  0.18946817  0.61072652     1.06000
O263        O  0.72250771  0.24136905  0.61794188    -0.76600
C264        C  0.70360866  0.09673495  0.47771772     1.04300
Fe265      Fe  0.05382936  0.38795916  0.39741666     1.65800
Fe266      Fe  0.14188138  0.48972720  0.47615364     1.73200
Fe267      Fe  0.15879107  0.49501900  0.33900658     1.54400
O268        O  0.16188029  0.42974755  0.31582029    -0.80400
O269        O  0.17007296  0.56674312  0.44784185    -0.78700
O270        O  0.09649268  0.36041799  0.35967424    -0.82900
O271        O  0.02931834  0.40326633  0.32461049    -0.77700
O272        O  0.22980020  0.51996036  0.37784330    -0.79500
O273        O  0.06884569  0.48203217  0.48725332    -0.82200
C274        C  0.04837483  0.43700624  0.28676476     0.98500
C275        C  0.13801284  0.38188082  0.33095416     1.06000
O276        O  0.11792301  0.45750719  0.40420598    -1.11200
O277        O  0.11919060  0.42012864  0.52058778    -0.73700
O278        O  0.06307951  0.35569400  0.46798847    -0.77100
O279        O  0.09510941  0.47535099  0.28818142    -0.77800
C280        C  0.08752788  0.37158725  0.51219608     0.97400
O281        O  0.01023576  0.41435337  0.43621795    -0.75800
O282        O  0.21640908  0.49948395  0.46603913    -0.81000
C283        C  0.17299217  0.58928290  0.40265276     1.00100
C284        C  0.24628622  0.51643104  0.42452370     1.06000
O285        O  0.16070245  0.56440979  0.35812542    -0.76600
C286        C  0.02263018  0.45248555  0.46827378     1.04300
Fe287      Fe  0.92465392  0.32845670  0.07465566     1.65800
Fe288      Fe  0.83165300  0.34432132  0.00664729     1.73200
Fe289      Fe  0.81690739  0.31628195  0.14163154     1.54400
O290        O  0.81661726  0.24662121  0.15323257    -0.80400
O291        O  0.80675849  0.39033946  0.04429932    -0.78700
O292        O  0.89188177  0.25973655  0.11642275    -0.82900
O293        O  0.95292407  0.37179106  0.14522446    -0.77700
O294        O  0.74449523  0.27397432  0.10381099    -0.79500
O295        O  0.90363923  0.41185592  0.99509034    -0.82200
C296        C  0.93114183  0.37482364  0.18824209     0.98500
C297        C  0.84954614  0.23199413  0.14208187     1.06000
O298        O  0.85778067  0.32958353  0.07427413    -1.11200
O299        O  0.85302930  0.30124806  0.95730098    -0.73700
O300        O  0.90806152  0.28508815  0.00417099    -0.77100
O301        O  0.88181692  0.35540192  0.19198864    -0.77800
C302        C  0.88228296  0.28118118  0.96145695     0.97400
O303        O  0.96433381  0.39716481  0.03303760    -0.75800
O304        O  0.75617152  0.27868445  0.01432384    -0.81000
C305        C  0.80371411  0.40438064  0.09205106     1.00100
C306        C  0.72661903  0.26086005  0.05603296     1.06000
O307        O  0.81326733  0.38495447  0.13392321    -0.76600
C308        C  0.95094926  0.42587963  0.00747969     1.04300
Fe309      Fe  0.99676839  0.27578517  0.75893036     1.65800
Fe310      Fe  0.00682938  0.17577757  0.81662991     1.73200
Fe311      Fe  0.99205653  0.17769573  0.68106212     1.54400
O312        O  0.92284870  0.17742512  0.66897476    -0.80400
O313        O  0.04978909  0.14793407  0.77767105    -0.78700
O314        O  0.93598886  0.25247345  0.70588418    -0.82900
O315        O  0.05101243  0.31383072  0.69765868    -0.77700
O316        O  0.94719588  0.10047768  0.71090837    -0.79500
O317        O  0.07659242  0.24385879  0.83241480    -0.82200
C318        C  0.05527758  0.29876871  0.65086241     0.98500
C319        C  0.90830956  0.21042467  0.68004208     1.06000
O320        O  0.99855652  0.20986643  0.75203517    -1.11200
O321        O  0.96628621  0.19866276  0.86869405    -0.73700
O322        O  0.94194553  0.24699192  0.82074570    -0.77100
O323        O  0.03438561  0.25006251  0.63905451    -0.77800
C324        C  0.94190503  0.22393579  0.86437883     0.97400
O325        O  0.05740986  0.30696249  0.81324423    -0.75800
O326        O  0.93817178  0.10502952  0.80033471    -0.81000
C327        C  0.07076312  0.15287237  0.73154287     1.00100
C328        C  0.92635755  0.07894311  0.75621087     1.06000
O329        O  0.06034327  0.17349487  0.69115835    -0.76600
C330        C  0.08825255  0.29185052  0.83034765     1.04300
Fe331      Fe  0.05431447  0.67077113  0.91014590     1.65800
Fe332      Fe  0.14492607  0.65276430  0.98063430     1.73200
Fe333      Fe  0.16444386  0.68490262  0.84632320     1.54400
O334        O  0.10196370  0.64433323  0.79409043    -0.80400
O335        O  0.22049083  0.71831994  0.97539474    -0.78700
O336        O  0.03033868  0.63307132  0.83599288    -0.82900
O337        O  0.08956265  0.74279224  0.87426694    -0.77700
O338        O  0.17089728  0.61763960  0.85430733    -0.79500
O339        O  0.12284881  0.69479417  0.03017704    -0.82200
C340        C  0.13178644  0.77017650  0.84821243     0.98500
C341        C  0.05307464  0.62752347  0.79507730     1.06000
O342        O  0.12117775  0.66951532  0.91239310    -1.11200
O343        O  0.07225909  0.58540033  0.98972817    -0.73700
O344        O  0.01324825  0.59905486  0.94589935    -0.77100
O345        O  0.16294918  0.75397658  0.83446969    -0.77800
C346        C  0.02569441  0.57068974  0.97357968     0.97400
O347        O  0.06554095  0.70806378  0.98413226    -0.75800
O348        O  0.17052511  0.60701168  0.94389983    -0.81000
C349        C  0.25086138  0.73906729  0.93468678     1.00100
C350        C  0.17721241  0.59574627  0.89619924     1.06000
O351        O  0.23469244  0.72837589  0.88624978    -0.76600
C352        C  0.09132705  0.71215590  0.02689918     1.04300
Fe353      Fe  0.98915509  0.72811953  0.24286189     1.65800
Fe354      Fe  0.97670297  0.82449479  0.17666439     1.73200
Fe355      Fe  0.01027569  0.83866260  0.31032863     1.54400
O356        O  0.97101307  0.77538096  0.36286117    -0.80400
O357        O  0.04463062  0.89877862  0.18177696    -0.78700
O358        O  0.95170760  0.70316086  0.31707585    -0.82900
O359        O  0.06049493  0.75821565  0.27843770    -0.77700
O360        O  0.94449658  0.84721958  0.30680453    -0.79500
O361        O  0.01546394  0.80058729  0.12446340    -0.82200
C362        C  0.09014568  0.80009523  0.30365859     0.98500
C363        C  0.95133850  0.72599772  0.36030918     1.06000
O364        O  0.99204659  0.79699992  0.24327411    -1.11200
O365        O  0.90661341  0.75388145  0.16678066    -0.73700
O366        O  0.91729949  0.69153198  0.20760139    -0.77100
O367        O  0.07734531  0.83391541  0.31726839    -0.77800
C368        C  0.89014683  0.70627627  0.18111494     0.97400
O369        O  0.02663044  0.74077255  0.16863194    -0.75800
O370        O  0.93562006  0.85279992  0.21753469    -0.81000
C371        C  0.06533632  0.92801238  0.22300703     1.00100
C372        C  0.92510577  0.85824627  0.26602343     1.06000
O373        O  0.05391973  0.91012906  0.27106454    -0.76600
C374        C  0.03176299  0.76810551  0.12659672     1.04300
Fe375      Fe  0.93623400  0.60436197  0.57643813     1.65800
Fe376      Fe  0.83822267  0.49731066  0.51000516     1.73200
Fe377      Fe  0.82694719  0.51270444  0.64519082     1.54400
O378        O  0.89024040  0.53187778  0.69533706    -0.80400
O379        O  0.76545831  0.49229545  0.51864114    -0.78700
O380        O  0.96075020  0.59241233  0.65140301    -0.82900
O381        O  0.90564930  0.64559107  0.61088730    -0.77700
O382        O  0.81535658  0.43674283  0.63711193    -0.79500
O383        O  0.86124192  0.56159539  0.45966682    -0.82200
C384        C  0.86550343  0.63277306  0.63976196     0.98500
C385        C  0.93890734  0.56492926  0.69339291     1.06000
O386        O  0.86723470  0.53819393  0.57722726    -1.11200
O387        O  0.90796985  0.49786423  0.49744800    -0.73700
O388        O  0.97129257  0.56732427  0.54202818    -0.77100
O389        O  0.83414790  0.58594541  0.65654041    -0.77800
C390        C  0.95524185  0.52637191  0.51364230     0.97400
O391        O  0.92549515  0.63037070  0.50170125    -0.75800
O392        O  0.80991030  0.42524945  0.54759191    -0.81000
C393        C  0.73798316  0.48511637  0.56101480     1.00100
C394        C  0.80502367  0.40756452  0.59551482     1.06000
O395        O  0.75635318  0.48975090  0.60838175    -0.76600
C396        C  0.89591460  0.60980652  0.46101986     1.04300
C397        C  0.90406877  0.64177634  0.41137613    -0.15100
C398        C  0.93115376  0.69475325  0.41107540    -0.30300
H399        H  0.89031708  0.62085055  0.37326907     0.13900
H400        H  0.94289734  0.71575142  0.44930683     0.14500
C401        C  0.08155382  0.73403028  0.07668274    -0.15100
C402        C  0.05405547  0.75933567  0.07650776    -0.30300
H403        H  0.09346924  0.72498881  0.11516744     0.13900
H404        H  0.04407779  0.77048236  0.03808530     0.14500
C405        C  0.02273503  0.60428752  0.74470788    -0.15100
C406        C  0.96995364  0.57478190  0.74390024    -0.30300
H407        H  0.04437323  0.61527114  0.70666373     0.13900
H408        H  0.94849475  0.56175360  0.78198897     0.14500
C409        C  0.88985453  0.25643322  0.91263518    -0.15100
C410        C  0.91704745  0.23071939  0.91366352    -0.30300
H411        H  0.87825934  0.26525724  0.87384034     0.13900
H412        H  0.92736999  0.22058229  0.95247928     0.14500
C413        C  0.99314765  0.47867212  0.99414051    -0.15100
C414        C  0.98332681  0.51766814  0.98561961    -0.30300
H415        H  0.03339748  0.48645017  0.99508300     0.13900
H416        H  0.94311781  0.50997054  0.98444339     0.14500
C417        C  0.98146911  0.46425973  0.48205615    -0.15100
C418        C  0.99441018  0.51192788  0.50028154    -0.30300
H419        H  0.94068368  0.43492002  0.47421578     0.13900
H420        H  0.03537403  0.54123640  0.50744491     0.14500
C421        C  0.07532186  0.33053598  0.55489984    -0.15100
C422        C  0.08290752  0.34061191  0.60848620    -0.30300
H423        H  0.05225003  0.28977350  0.54220474     0.13900
H424        H  0.10328554  0.38132619  0.62166138     0.14500
C425        C  0.01609969  0.42868854  0.23731108    -0.15100
C426        C  0.96330499  0.39758247  0.23783128    -0.30300
H427        H  0.03645816  0.44435726  0.19903580     0.13900
H428        H  0.94306325  0.38441760  0.27655204     0.14500
C429        C  0.81678987  0.14888140  0.66316703    -0.15100
C430        C  0.85562913  0.19869249  0.66580051    -0.30300
H431        H  0.82493171  0.11667483  0.66597850     0.13900
H432        H  0.84746620  0.23088382  0.66323844     0.14500
C433        C  0.76744916  0.31579497  0.56098416    -0.15100
C434        C  0.78365291  0.35011771  0.60303215    -0.30300
H435        H  0.77425273  0.33053327  0.51952036     0.13900
H436        H  0.77632556  0.33522809  0.64444450     0.14500
C437        C  0.79473461  0.14472219  0.18176548    -0.15100
C438        C  0.83949966  0.18028736  0.15838177    -0.30300
H439        H  0.76401260  0.15376300  0.19095218     0.13900
H440        H  0.87029051  0.17109958  0.14999238     0.14500
C441        C  0.75702938  0.06607764  0.42806331    -0.15100
C442        C  0.72570590  0.08729709  0.42777020    -0.30300
H443        H  0.77232061  0.06087246  0.46633440     0.13900
H444        H  0.71305193  0.09523803  0.38915548     0.14500
C445        C  0.87739879  0.90170485  0.23264082    -0.15100
C446        C  0.89227540  0.88238871  0.27472009    -0.30300
H447        H  0.88371182  0.89382636  0.19117094     0.13900
H448        H  0.88581672  0.89011125  0.31619548     0.14500
C449        C  0.63100789  0.90401300  0.09877684    -0.15100
C450        C  0.68408000  0.92932930  0.09865541    -0.30300
H451        H  0.61010465  0.89290735  0.13723694     0.13900
H452        H  0.70461637  0.93842680  0.06000470     0.14500
C453        C  0.57209080  0.97612559  0.76478252    -0.15100
C454        C  0.60042900  0.02913899  0.76313897    -0.30300
H455        H  0.55943855  0.95460562  0.72689615     0.13900
H456        H  0.61122978  0.05096811  0.80087956     0.14500
C457        C  0.30804535  0.77429097  0.94371076    -0.15100
C458        C  0.34309024  0.79276896  0.90217376    -0.30300
H459        H  0.32200451  0.77990633  0.98531578     0.13900
H460        H  0.32912034  0.78676529  0.86055691     0.14500
C461        C  0.17975535  0.85657086  0.33226534    -0.15100
C462        C  0.14208987  0.80928332  0.31679551    -0.30300
H463        H  0.17205217  0.88895257  0.33612068     0.13900
H464        H  0.14968450  0.77685299  0.31279580     0.14500
C465        C  0.50989164  0.99137541  0.51994962    -0.15100
C466        C  0.47362084  0.00180011  0.50151125    -0.30300
H467        H  0.50053591  0.95089322  0.52641783     0.13900
H468        H  0.48305680  0.04233579  0.49523153     0.14500
C469        C  0.21659301  0.67974204  0.44319636    -0.15100
C470        C  0.19514239  0.64732876  0.40019841    -0.30300
H471        H  0.21243598  0.66309115  0.48360342     0.13900
H472        H  0.19944292  0.66448520  0.36000687     0.14500
C473        C  0.25259562  0.90328316  0.57706564    -0.15100
C474        C  0.22514655  0.92868259  0.57498964    -0.30300
H475        H  0.26215318  0.89313245  0.61629913     0.13900
H476        H  0.21339988  0.93685980  0.53596283     0.14500
C477        C  0.14430837  0.82353395  0.83472078    -0.15100
C478        C  0.19273439  0.86112698  0.82105413    -0.30300
H479        H  0.11281277  0.83254691  0.83809921     0.13900
H480        H  0.22430684  0.85231709  0.81715060     0.14500
C481        C  0.11930908  0.11003238  0.76697068    -0.15100
C482        C  0.10501128  0.12966522  0.72442602    -0.30300
H483        H  0.11218791  0.11778536  0.80818474     0.13900
H484        H  0.11379522  0.12351484  0.68326063     0.14500
C485        C  0.50823128  0.00213504  0.00387519    -0.15100
C486        C  0.45826503  0.99057562  0.00755349    -0.30300
H487        H  0.53993677  0.04293456  0.00477101     0.13900
H488        H  0.42646502  0.94982521  0.00703284     0.14500
C489        C  0.32670873  0.08893988  0.88514043    -0.15100
C490        C  0.31767330  0.08158461  0.93887635    -0.30300
H491        H  0.36720012  0.10966044  0.87111137     0.13900
H492        H  0.27723382  0.05853984  0.95272955     0.14500
C493        C  0.42244974  0.02696893  0.25164117    -0.15100
C494        C  0.39693699  0.97387552  0.25251661    -0.30300
H495        H  0.43369733  0.04838357  0.28964231     0.13900
H496        H  0.38737893  0.95270676  0.21437510     0.14500
C497        C  0.63540473  0.20588452  0.09191937    -0.15100
C498        C  0.66862172  0.22613762  0.04897012    -0.30300
H499        H  0.65173586  0.21066820  0.13244261     0.13900
H500        H  0.65269839  0.22140487  0.00827167     0.14500
C501        C  0.33889153  0.20290660  0.18304870    -0.15100
C502        C  0.32635340  0.15316586  0.17398342    -0.30300
H503        H  0.37965894  0.23452869  0.18365823     0.13900
H504        H  0.28540832  0.12181082  0.17491580     0.14500
C505        C  0.16194000  0.35076252  0.31740068    -0.15100
C506        C  0.15551527  0.31148158  0.35028478    -0.30300
H507        H  0.18812151  0.36248583  0.28252900     0.13900
H508        H  0.12914121  0.29948020  0.38499921     0.14500
C509        C  0.12437398  0.01785641  0.25873529    -0.15100
C510        C  0.10131014  0.98590050  0.21566699    -0.30300
H511        H  0.12141939  0.00023924  0.29843049     0.13900
H512        H  0.10392786  0.00291271  0.17573077     0.14500
C513        C  0.98393634  0.11921549  0.27215134    -0.15100
C514        C  0.01653840  0.13099864  0.22912762    -0.30300
H515        H  0.00045997  0.12955580  0.31268969     0.13900
H516        H  0.00062637  0.12173934  0.18830106     0.14500
C517        C  0.35055461  0.18508803  0.67726997    -0.15100
C518        C  0.30763427  0.15431198  0.64782628    -0.30300
H519        H  0.36285449  0.16878413  0.71012988     0.13900
H520        H  0.29480812  0.17055418  0.61540037     0.14500
C521        C  0.35200840  0.25927715  0.43050665    -0.15100
C522        C  0.29894220  0.23146087  0.43000182    -0.30300
H523        H  0.37283060  0.26980180  0.39197988     0.13900
H524        H  0.27757549  0.21821271  0.46808277     0.14500
C525        C  0.68118289  0.46623456  0.55578327    -0.15100
C526        C  0.65014469  0.45477289  0.60014832    -0.30300
H527        H  0.66371526  0.45424419  0.51580761     0.13900
H528        H  0.66776399  0.46699024  0.64004309     0.14500
C529        C  0.54528840  0.23202849  0.57386854    -0.15100
C530        C  0.56144747  0.21495078  0.61718672    -0.30300
H531        H  0.55081722  0.22178840  0.53314253     0.13900
H532        H  0.55591286  0.22509764  0.65794860     0.14500
C533        C  0.40002092  0.43520445  0.75319677    -0.15100
C534        C  0.42990888  0.41221854  0.75389806    -0.30300
H535        H  0.38582803  0.44108281  0.71453376     0.13900
H536        H  0.44578777  0.40809849  0.79226868     0.14500
C537        C  0.23958063  0.33110867  0.06176520    -0.15100
C538        C  0.24380935  0.33936700  0.11568127    -0.30300
H539        H  0.22325743  0.29101358  0.04736739     0.13900
H540        H  0.26392021  0.37972191  0.13004015     0.14500
C541        C  0.18274131  0.32924345  0.83344301    -0.15100
C542        C  0.14064660  0.33322678  0.84524874    -0.30300
H543        H  0.17848223  0.29253248  0.81860298     0.13900
H544        H  0.14534847  0.37010470  0.86021824     0.14500
C545        C  0.42520168  0.64827934  0.90869607    -0.15100
C546        C  0.44022065  0.68001942  0.95287011    -0.30300
H547        H  0.43796773  0.66579361  0.86866108     0.13900
H548        H  0.42816202  0.66271848  0.99307320     0.14500
C549        C  0.20573855  0.53474727  0.93246109    -0.15100
C550        C  0.19696419  0.55854655  0.88960784    -0.30300
H551        H  0.19175601  0.53694852  0.97254911     0.13900
H552        H  0.21033358  0.55563503  0.84943127     0.14500
C553        C  0.66342094  0.85474114  0.85045958    -0.15100
C554        C  0.65348229  0.81427114  0.81875731    -0.30300
H555        H  0.70317689  0.88154286  0.86432649     0.13900
H556        H  0.61373270  0.78743170  0.80491476     0.14500
C557        C  0.85487089  0.67492915  0.65243513    -0.15100
C558        C  0.80673423  0.66434831  0.66602823    -0.30300
H559        H  0.88646529  0.71544632  0.64731355     0.13900
H560        H  0.77511132  0.62376504  0.67067408     0.14500
C561        C  0.87569400  0.98837824  0.71520209    -0.15100
C562        C  0.88952319  0.02083468  0.75875818    -0.30300
H563        H  0.88780758  0.00514480  0.67480854     0.13900
H564        H  0.87710480  0.00371239  0.79898973     0.14500
C565        C  0.97548579  0.87862743  0.77285955    -0.15100
C566        C  0.00976857  0.88988685  0.73157238    -0.30300
H567        H  0.99023342  0.89133950  0.81366330     0.13900
H568        H  0.99446865  0.87668902  0.69100258     0.14500
C569        C  0.80139299  0.67451921  0.14538911    -0.15100
C570        C  0.83698638  0.66477553  0.16766462    -0.30300
H571        H  0.81154867  0.71458970  0.13501146     0.13900
H572        H  0.82667177  0.62449437  0.17731530     0.14500
C573        C  0.72278245  0.63966044  0.90404651    -0.15100
C574        C  0.74521630  0.69246429  0.90484316    -0.30300
H575        H  0.71824471  0.61985734  0.86567238     0.13900
H576        H  0.75262853  0.71236026  0.94360045     0.14500
C577        C  0.50260401  0.49344471  0.98439203    -0.15100
C578        C  0.46809267  0.49957753  0.01405292    -0.30300
H579        H  0.49019764  0.46924209  0.94817225     0.13900
H580        H  0.48038467  0.52414765  0.04998473     0.14500
C581        C  0.77092609  0.46125275  0.05568743    -0.15100
C582        C  0.78429079  0.44178398  0.09888696    -0.30300
H583        H  0.78074691  0.45500019  0.01499293     0.13900
H584        H  0.77435153  0.44768070  0.13965570     0.14500
C585        C  0.55098175  0.34768446  0.09359721    -0.15100
C586        C  0.53064292  0.31375986  0.05135919    -0.30300
H587        H  0.54423986  0.33233136  0.13481771     0.13900
H588        H  0.53653879  0.32882810  0.01007094     0.14500
C589        C  0.58671656  0.57135547  0.23564388    -0.15100
C590        C  0.56145866  0.59903625  0.23661439    -0.30300
H591        H  0.59577439  0.55897399  0.27384437     0.13900
H592        H  0.54997984  0.60918049  0.19850279     0.14500
C593        C  0.63444655  0.73229946  0.56892252    -0.15100
C594        C  0.68768498  0.76065093  0.56972285    -0.30300
H595        H  0.61342065  0.72168292  0.60733432     0.13900
H596        H  0.70904933  0.77309413  0.53157101     0.14500
C597        C  0.63978513  0.81736439  0.32183062    -0.15100
C598        C  0.68598796  0.84746864  0.34635115    -0.30300
H599        H  0.62498778  0.83389874  0.29171340     0.13900
H600        H  0.70076286  0.83111010  0.37667599     0.14500
C601        C  0.46916826  0.47871308  0.50411960    -0.15100
C602        C  0.51476595  0.51448698  0.48181187    -0.30300
H603        H  0.43873391  0.48834916  0.51257238     0.13900
H604        H  0.54540682  0.50506838  0.47371870     0.14500
C605        C  0.42925466  0.78569800  0.39331510    -0.15100
C606        C  0.44401186  0.76619162  0.43538732    -0.30300
H607        H  0.43694623  0.77882176  0.35198474     0.13900
H608        H  0.43673429  0.77325875  0.47679642     0.14500
C609        C  0.33627579  0.55103905  0.38801718    -0.15100
C610        C  0.30329433  0.53619664  0.43105864    -0.30300
H611        H  0.32029320  0.54267251  0.34716648     0.13900
H612        H  0.31903483  0.54362166  0.47199718     0.14500
loop_ 
_geom_bond_atom_site_label_1 
_geom_bond_atom_site_label_2 
_geom_bond_distance 
_geom_bond_site_symmetry_2 
_ccdc_geom_bond_type 
Fe1          O17   2.051       .  S
Fe1           O7   2.085       .  S
Fe1          O14   2.089       .  S
Fe1           O6   2.044       .  S
Fe1          O12   1.976       .  S
Fe2           O5   2.073       .  S
Fe2           O9   2.056       .  S
Fe2          O13   2.078       .  S
Fe2          O18   2.075       .  S
Fe2          O12   1.964       .  S
Fe3          O21   2.069       .  S
Fe3           O8   2.070       .  S
Fe3          O15   2.075       .  S
Fe3           O4   2.042       .  S
Fe3          O12   1.971       .  S
O4           C11   1.268       .  A
O5           C19   1.269       .  A
O6           C11   1.271       .  A
O7           C10   1.269       .  A
O8           C20   1.271       .  A
O9           C22   1.276       .  A
C10          O15   1.267       .  A
C10         C590   1.493       .  S
C11         C597   1.449       .  S
O13          C16   1.267       .  A
O14          C16   1.267       .  A
C16         C593   1.498       .  S
O17          C22   1.271       .  A
O18          C20   1.273       .  A
C19          O21   1.270       .  A
C19         C609   1.481       .  S
C20         C606   1.481       .  S
C22         C602   1.459       .  S
Fe23         O39   2.041       .  S
Fe23         O29   2.076   1_554  S
Fe23         O36   2.080       .  S
Fe23         O28   2.036       .  S
Fe23         O34   1.977       .  S
Fe24         O27   2.063       .  S
Fe24         O31   2.078       .  S
Fe24         O35   2.073       .  S
Fe24         O40   2.092       .  S
Fe24         O34   1.964       .  S
Fe25         O43   2.068       .  S
Fe25         O30   2.068       .  S
Fe25         O37   2.066   1_554  S
Fe25         O26   2.052   1_554  S
Fe25         O34   1.977       .  S
O26          C33   1.269   1_556  A
O27          C41   1.266       .  A
O28          C33   1.270       .  A
O29          C32   1.267       .  A
O30          C42   1.270       .  A
O31          C44   1.282       .  A
C32          O37   1.265       .  A
C32         C573   1.484       .  S
C33         C577   1.448   1_554  S
O35          C38   1.264       .  A
O36          C38   1.266       .  A
C38         C589   1.494       .  S
O39          C44   1.269       .  A
O40          C42   1.278       .  A
C41          O43   1.268       .  A
C41         C581   1.479       .  S
C42         C585   1.486       .  S
C44         C569   1.463       .  S
Fe45         O61   2.031       .  S
Fe45         O51   2.074       .  S
Fe45         O58   2.073       .  S
Fe45         O50   2.028       .  S
Fe45         O56   1.988       .  S
Fe46         O49   2.067       .  S
Fe46         O53   2.062       .  S
Fe46         O57   2.070       .  S
Fe46         O62   2.082       .  S
Fe46         O56   1.976       .  S
Fe47         O65   2.101       .  S
Fe47         O52   2.077       .  S
Fe47         O59   2.099       .  S
Fe47         O48   2.073       .  S
Fe47         O56   1.973       .  S
O48          C55   1.276       .  A
O49          C63   1.269       .  A
O50          C55   1.263       .  A
O51          C54   1.267       .  A
O52          C64   1.271       .  A
O53          C66   1.275       .  A
C54          O59   1.272       .  A
C54         C594   1.500       .  S
C55         C558   1.458       .  S
O57          C60   1.266       .  A
O58          C60   1.267       .  A
C60         C574   1.484       .  S
O61          C66   1.264       .  A
O62          C64   1.272       .  A
C63          O65   1.279       .  A
C63         C561   1.497       .  S
C64         C565   1.492       .  S
C66         C554   1.456       .  S
Fe67         O83   2.068       .  S
Fe67         O73   2.036       .  S
Fe67         O80   2.056       .  S
Fe67         O72   2.059       .  S
Fe67         O78   1.963       .  S
Fe68         O71   2.084       .  S
Fe68         O75   2.086       .  S
Fe68         O79   2.059       .  S
Fe68         O84   2.061       .  S
Fe68         O78   1.952       .  S
Fe69         O87   2.101       .  S
Fe69         O74   2.081       .  S
Fe69         O81   2.045   1_556  S
Fe69         O70   2.108   1_556  S
Fe69         O78   1.970       .  S
O70          C77   1.275       .  A
O71          C85   1.282       .  A
O72          C77   1.264   1_556  A
O73          C76   1.270       .  A
O74          C86   1.270       .  A
O75          C88   1.266       .  A
C76          O81   1.266   1_556  A
C76         C578   1.451   1_556  S
C77         C537   1.494       .  S
O79          C82   1.279       .  A
O80          C82   1.271       .  A
C82         C541   1.454       .  S
O83          C88   1.262       .  A
O84          C86   1.264       .  A
C85          O87   1.279       .  A
C85         C545   1.491       .  S
C86         C549   1.484       .  S
C88         C533   1.494       .  S
Fe89        O105   2.084       .  S
Fe89         O95   2.037       .  S
Fe89        O102   2.031       .  S
Fe89         O94   2.086       .  S
Fe89        O100   1.977       .  S
Fe90         O93   2.073       .  S
Fe90         O97   2.074       .  S
Fe90        O101   2.057       .  S
Fe90        O106   2.072       .  S
Fe90        O100   1.977       .  S
Fe91        O109   2.055       .  S
Fe91         O96   2.087       .  S
Fe91        O103   2.069       .  S
Fe91         O92   2.067       .  S
Fe91        O100   1.965       .  S
O92          C99   1.264       .  A
O93         C107   1.271       .  A
O94          C99   1.267       .  A
O95          C98   1.269       .  A
O96         C108   1.276       .  A
O97         C110   1.266       .  A
C98         O103   1.278       .  A
C98         C601   1.456       .  S
C99         C521   1.491       .  S
O101        C104   1.271       .  A
O102        C104   1.270       .  A
C104        C517   1.452       .  S
O105        C110   1.267       .  A
O106        C108   1.269       .  A
C107        O109   1.266       .  A
C107        C526   1.476       .  S
C108        C529   1.488       .  S
C110        C534   1.493       .  S
Fe111       O127   2.059       .  S
Fe111       O117   2.036       .  S
Fe111       O124   2.049       .  S
Fe111       O116   2.069       .  S
Fe111       O122   1.973       .  S
Fe112       O115   2.078       .  S
Fe112       O119   2.101       .  S
Fe112       O123   2.061       .  S
Fe112       O128   2.095       .  S
Fe112       O122   1.973       .  S
Fe113       O131   2.071       .  S
Fe113       O118   2.070       .  S
Fe113       O125   2.045       .  S
Fe113       O114   2.085       .  S
Fe113       O122   1.971       .  S
O114        C121   1.268       .  A
O115        C129   1.274       .  A
O116        C121   1.265       .  A
O117        C120   1.270       .  A
O118        C130   1.271       .  A
O119        C132   1.270       .  A
C120        O125   1.267       .  A
C120        C506   1.446       .  S
C121        C522   1.493       .  S
O123        C126   1.278       .  A
O124        C126   1.270       .  A
C126        C501   1.457       .  S
O127        C132   1.261       .  A
O128        C130   1.272       .  A
C129        O131   1.272       .  A
C129        C514   1.483       .  S
C130        C509   1.488       .  S
C132        C538   1.496       .  S
Fe133       O149   2.041       .  S
Fe133       O139   2.062       .  S
Fe133       O146   2.056       .  S
Fe133       O138   2.042       .  S
Fe133       O144   1.977       .  S
Fe134       O137   2.098       .  S
Fe134       O141   2.069       .  S
Fe134       O145   2.117   1_554  S
Fe134       O150   2.094       .  S
Fe134       O144   1.969       .  S
Fe135       O153   2.077       .  S
Fe135       O140   2.058       .  S
Fe135       O147   2.080       .  S
Fe135       O136   2.057       .  S
Fe135       O144   1.963       .  S
O136        C143   1.273       .  A
O137        C151   1.275       .  A
O138        C143   1.266       .  A
O139        C142   1.265       .  A
O140        C152   1.267       .  A
O141        C154   1.276       .  A
C142        O147   1.267       .  A
C142        C493   1.486       .  S
C143        C502   1.454       .  S
O145        C148   1.276       .  A
O146        C148   1.263   1_554  A
C148        C490   1.498       .  S
O149        C154   1.265       .  A
O150        C152   1.277       .  A
C151        O153   1.275       .  A
C151        C497   1.491       .  S
C152        C586   1.489       .  S
C154        C486   1.460   1_545  S
Fe155       O171   2.042       .  S
Fe155       O161   2.051       .  S
Fe155       O168   2.055   1_545  S
Fe155       O160   2.048   1_545  S
Fe155       O166   1.968       .  S
Fe156       O159   2.072       .  S
Fe156       O163   2.040       .  S
Fe156       O167   2.078   1_545  S
Fe156       O172   2.061   1_545  S
Fe156       O166   1.968       .  S
Fe157       O175   2.082   1_565  S
Fe157       O162   2.107       .  S
Fe157       O169   2.116   1_565  S
Fe157       O158   2.058       .  S
Fe157       O166   1.965   1_565  S
O158        C165   1.277       .  A
O159        C173   1.270       .  A
O160        C165   1.268       .  A
O161        C164   1.260       .  A
O162        C174   1.276       .  A
O163        C176   1.267       .  A
C164        O169   1.275       .  A
C164        C489   1.497       .  S
C165        C478   1.459       .  S
O167        C170   1.266       .  A
O168        C170   1.263       .  A
C170        C474   1.483       .  S
O171        C176   1.270       .  A
O172        C174   1.269       .  A
C173        O175   1.276       .  A
C173        C481   1.483       .  S
C174        C566   1.488       .  S
C176        C518   1.448       .  S
Fe177       O193   2.019       .  S
Fe177       O183   2.071       .  S
Fe177       O190   2.069       .  S
Fe177       O182   2.017       .  S
Fe177       O188   1.986       .  S
Fe178       O181   2.065       .  S
Fe178       O185   2.069       .  S
Fe178       O189   2.071       .  S
Fe178       O194   2.090       .  S
Fe178       O188   1.973       .  S
Fe179       O197   2.075       .  S
Fe179       O184   2.071       .  S
Fe179       O191   2.075       .  S
Fe179       O180   2.055       .  S
Fe179       O188   1.968       .  S
O180        C187   1.273       .  A
O181        C195   1.269       .  A
O182        C187   1.259       .  A
O183        C186   1.267       .  A
O184        C196   1.269       .  A
O185        C198   1.275       .  A
C186        O191   1.268       .  A
C186        C494   1.486       .  S
C187        C461   1.446       .  S
O189        C192   1.267       .  A
O190        C192   1.268       .  A
C192        C473   1.481       .  S
O193        C198   1.259       .  A
O194        C196   1.274       .  A
C195        O197   1.273       .  A
C195        C605   1.480       .  S
C196        C469   1.493       .  S
C198        C466   1.454   1_565  S
Fe199       O215   2.075   1_556  S
Fe199       O205   2.031       .  S
Fe199       O212   2.033       .  S
Fe199       O204   2.082       .  S
Fe199       O210   1.987       .  S
Fe200       O203   2.098       .  S
Fe200       O207   2.083   1_556  S
Fe200       O211   2.075   1_556  S
Fe200       O216   2.060       .  S
Fe200       O210   1.975       .  S
Fe201       O219   2.064       .  S
Fe201       O206   2.083       .  S
Fe201       O213   2.066       .  S
Fe201       O202   2.066       .  S
Fe201       O210   1.970       .  S
O202        C209   1.265       .  A
O203        C217   1.278       .  A
O204        C209   1.268       .  A
O205        C208   1.265       .  A
O206        C218   1.274       .  A
O207        C220   1.268       .  A
C208        O213   1.276       .  A
C208        C553   1.456       .  S
C209        C453   1.488       .  S
O211        C214   1.276   1_554  A
O212        C214   1.264       .  A
C214        C485   1.459   1_566  S
O215        C220   1.267       .  A
O216        C218   1.267       .  A
C217        O219   1.268       .  A
C217        C546   1.494       .  S
C218        C458   1.483       .  S
C220        C449   1.492       .  S
Fe221       O237   2.071   1_565  S
Fe221       O227   2.039   1_565  S
Fe221       O234   2.029       .  S
Fe221       O226   2.079       .  S
Fe221       O232   1.974   1_565  S
Fe222       O225   2.071   1_565  S
Fe222       O229   2.071   1_565  S
Fe222       O233   2.055       .  S
Fe222       O238   2.060       .  S
Fe222       O232   1.976   1_565  S
Fe223       O241   2.072       .  S
Fe223       O228   2.068   1_545  S
Fe223       O235   2.056       .  S
Fe223       O224   2.069   1_545  S
Fe223       O232   1.965       .  S
O224        C231   1.263       .  A
O225        C239   1.270       .  A
O226        C231   1.265       .  A
O227        C230   1.268       .  A
O228        C240   1.272       .  A
O229        C242   1.266       .  A
C230        O235   1.279       .  A
C230        C437   1.455       .  S
C231        C450   1.491       .  S
O233        C236   1.269       .  A
O234        C236   1.270       .  A
C236        C598   1.454       .  S
O237        C242   1.266       .  A
O238        C240   1.269       .  A
C239        O241   1.268       .  A
C239        C513   1.481       .  S
C240        C445   1.472       .  S
C242        C441   1.487       .  S
Fe243       O259   2.078       .  S
Fe243       O249   2.020       .  S
Fe243       O256   2.021       .  S
Fe243       O248   2.076       .  S
Fe243       O254   1.991       .  S
Fe244       O247   2.093       .  S
Fe244       O251   2.070       .  S
Fe244       O255   2.072       .  S
Fe244       O260   2.061       .  S
Fe244       O254   1.971       .  S
Fe245       O263   2.053       .  S
Fe245       O250   2.092       .  S
Fe245       O257   2.069       .  S
Fe245       O246   2.074       .  S
Fe245       O254   1.971       .  S
O246        C253   1.266       .  A
O247        C261   1.276       .  A
O248        C253   1.268       .  A
O249        C252   1.261       .  A
O250        C262   1.277       .  A
O251        C264   1.266       .  A
C252        O257   1.275       .  A
C252        C429   1.450       .  S
C253        C454   1.489       .  S
O255        C258   1.277       .  A
O256        C258   1.261       .  A
C258        C465   1.455   1_545  S
O259        C264   1.268       .  A
O260        C262   1.268       .  A
C261        O263   1.265       .  A
C261        C433   1.487       .  S
C262        C530   1.489       .  S
C264        C442   1.485       .  S
Fe265       O281   2.044       .  S
Fe265       O271   2.061       .  S
Fe265       O278   2.057       .  S
Fe265       O270   2.033       .  S
Fe265       O276   1.972       .  S
Fe266       O269   2.094       .  S
Fe266       O273   2.063       .  S
Fe266       O277   2.103       .  S
Fe266       O282   2.079       .  S
Fe266       O276   1.971       .  S
Fe267       O285   2.069       .  S
Fe267       O272   2.068       .  S
Fe267       O279   2.079       .  S
Fe267       O268   2.050       .  S
Fe267       O276   1.973       .  S
O268        C275   1.269       .  A
O269        C283   1.272       .  A
O270        C275   1.271       .  A
O271        C274   1.264       .  A
O272        C284   1.271       .  A
O273        C286   1.279       .  A
C274        O279   1.266       .  A
C274        C425   1.487       .  S
C275        C505   1.448       .  S
O277        C280   1.269       .  A
O278        C280   1.260       .  A
C280        C421   1.496       .  S
O281        C286   1.270       .  A
O282        C284   1.275       .  A
C283        O285   1.270       .  A
C283        C470   1.489       .  S
C284        C610   1.482       .  S
C286        C417   1.458   1_455  S
Fe287       O303   2.023       .  S
Fe287       O293   2.074       .  S
Fe287       O300   2.070       .  S
Fe287       O292   2.020       .  S
Fe287       O298   1.984       .  S
Fe288       O291   2.060       .  S
Fe288       O295   2.067   1_554  S
Fe288       O299   2.075   1_554  S
Fe288       O304   2.092       .  S
Fe288       O298   1.968       .  S
Fe289       O307   2.080       .  S
Fe289       O294   2.073       .  S
Fe289       O301   2.076       .  S
Fe289       O290   2.060       .  S
Fe289       O298   1.971       .  S
O290        C297   1.273       .  A
O291        C305   1.268       .  A
O292        C297   1.261       .  A
O293        C296   1.267       .  A
O294        C306   1.270       .  A
O295        C308   1.274   1_556  A
C296        O301   1.268       .  A
C296        C426   1.486       .  S
C297        C438   1.448       .  S
O299        C302   1.268       .  A
O300        C302   1.268   1_554  A
C302        C409   1.485       .  S
O303        C308   1.260       .  A
O304        C306   1.275       .  A
C305        O307   1.273       .  A
C305        C582   1.482       .  S
C306        C498   1.494       .  S
C308        C413   1.454   1_554  S
Fe309       O325   2.044   1_655  S
Fe309       O315   2.067   1_655  S
Fe309       O322   2.064       .  S
Fe309       O314   2.036       .  S
Fe309       O320   1.972       .  S
Fe310       O313   2.061       .  S
Fe310       O317   2.060       .  S
Fe310       O321   2.086   1_455  S
Fe310       O326   2.085   1_455  S
Fe310       O320   1.953   1_455  S
Fe311       O329   2.088   1_655  S
Fe311       O316   2.097       .  S
Fe311       O323   2.110   1_655  S
Fe311       O312   2.053       .  S
Fe311       O320   1.958       .  S
O312        C319   1.272       .  A
O313        C327   1.267       .  A
O314        C319   1.262       .  A
O315        C318   1.268       .  A
O316        C328   1.275       .  A
O317        C330   1.273       .  A
C318        O323   1.277       .  A
C318        C422   1.498       .  S
C319        C430   1.451       .  S
O321        C324   1.269       .  A
O322        C324   1.266       .  A
C324        C410   1.485       .  S
O325        C330   1.264       .  A
O326        C328   1.278       .  A
C327        O329   1.276       .  A
C327        C482   1.485       .  S
C328        C562   1.494       .  S
C330        C542   1.452       .  S
Fe331       O347   2.073       .  S
Fe331       O337   2.026       .  S
Fe331       O344   2.023       .  S
Fe331       O336   2.075       .  S
Fe331       O342   1.986       .  S
Fe332       O335   2.088       .  S
Fe332       O339   2.067   1_556  S
Fe332       O343   2.068       .  S
Fe332       O348   2.058       .  S
Fe332       O342   1.971       .  S
Fe333       O351   2.056       .  S
Fe333       O338   2.085       .  S
Fe333       O345   2.070       .  S
Fe333       O334   2.065       .  S
Fe333       O342   1.974       .  S
O334        C341   1.265       .  A
O335        C349   1.275       .  A
O336        C341   1.268       .  A
O337        C340   1.263       .  A
O338        C350   1.274       .  A
O339        C352   1.265       .  A
C340        O345   1.275       .  A
C340        C477   1.454       .  S
C341        C405   1.483       .  S
O343        C346   1.275       .  A
O344        C346   1.261       .  A
C346        C414   1.453   1_455  S
O347        C352   1.268   1_556  A
O348        C350   1.266       .  A
C349        O351   1.266       .  A
C349        C457   1.484       .  S
C350        C550   1.483       .  S
C352        C401   1.484       .  S
Fe353       O369   2.071   1_655  S
Fe353       O359   2.023   1_655  S
Fe353       O366   2.025       .  S
Fe353       O358   2.068       .  S
Fe353       O364   1.982       .  S
Fe354       O357   2.095   1_655  S
Fe354       O361   2.068   1_655  S
Fe354       O365   2.078       .  S
Fe354       O370   2.049       .  S
Fe354       O364   1.973       .  S
Fe355       O373   2.063       .  S
Fe355       O360   2.074   1_455  S
Fe355       O367   2.053       .  S
Fe355       O356   2.068   1_455  S
Fe355       O364   1.971   1_455  S
O356        C363   1.265       .  A
O357        C371   1.275       .  A
O358        C363   1.267       .  A
O359        C362   1.261       .  A
O360        C372   1.272       .  A
O361        C374   1.266       .  A
C362        O367   1.274       .  A
C362        C462   1.448       .  S
C363        C398   1.483       .  S
O365        C368   1.276       .  A
O366        C368   1.262       .  A
C368        C570   1.459       .  S
O369        C374   1.268       .  A
O370        C372   1.267       .  A
C371        O373   1.268       .  A
C371        C510   1.494       .  S
C372        C446   1.474       .  S
C374        C402   1.483       .  S
Fe375       O391   2.072       .  S
Fe375       O381   2.028       .  S
Fe375       O388   2.028       .  S
Fe375       O380   2.073       .  S
Fe375       O386   1.983       .  S
Fe376       O379   2.082       .  S
Fe376       O383   2.061       .  S
Fe376       O387   2.068       .  S
Fe376       O392   2.058       .  S
Fe376       O386   1.977       .  S
Fe377       O395   2.045       .  S
Fe377       O382   2.092       .  S
Fe377       O389   2.074       .  S
Fe377       O378   2.063       .  S
Fe377       O386   1.968       .  S
O378        C385   1.264       .  A
O379        C393   1.272       .  A
O380        C385   1.267       .  A
O381        C384   1.264       .  A
O382        C394   1.276       .  A
O383        C396   1.263       .  A
C384        O389   1.277       .  A
C384        C557   1.458       .  S
C385        C406   1.484       .  S
O387        C390   1.275       .  A
O388        C390   1.265       .  A
C390        C418   1.453       .  S
O391        C396   1.266       .  A
O392        C394   1.266       .  A
C393        O395   1.265       .  A
C393        C525   1.478       .  S
C394        C434   1.485       .  S
C396        C397   1.481       .  S
C397        C398   1.345       .  D
C397        H399   1.087       .  S
C398        H400   1.087       .  S
C401        C402   1.346       .  D
C401        H403   1.087       .  S
C402        H404   1.087       .  S
C405        C406   1.345   1_455  D
C405        H407   1.087       .  S
C406        H408   1.087       .  S
C409        C410   1.348       .  D
C409        H411   1.087       .  S
C410        H412   1.087       .  S
C413        C414   1.330       .  D
C413        H415   1.088   1_655  S
C414        H416   1.087       .  S
C417        C418   1.334       .  D
C417        H419   1.087       .  S
C418        H420   1.088   1_655  S
C421        C422   1.349       .  D
C421        H423   1.086       .  S
C422        H424   1.086       .  S
C425        C426   1.349   1_455  D
C425        H427   1.086       .  S
C426        H428   1.087       .  S
C429        C430   1.331       .  D
C429        H431   1.088       .  S
C430        H432   1.088       .  S
C433        C434   1.360       .  D
C433        H435   1.086       .  S
C434        H436   1.086       .  S
C437        C438   1.330       .  D
C437        H439   1.087       .  S
C438        H440   1.088       .  S
C441        C442   1.347       .  D
C441        H443   1.086       .  S
C442        H444   1.087       .  S
C445        C446   1.352       .  D
C445        H447   1.087       .  S
C446        H448   1.087       .  S
C449        C450   1.350       .  D
C449        H451   1.086       .  S
C450        H452   1.087       .  S
C453        C454   1.347   1_565  D
C453        H455   1.087       .  S
C454        H456   1.086       .  S
C457        C458   1.357       .  D
C457        H459   1.086       .  S
C458        H460   1.086       .  S
C461        C462   1.327       .  D
C461        H463   1.088       .  S
C462        H464   1.087       .  S
C465        C466   1.328   1_565  D
C465        H467   1.088       .  S
C466        H468   1.088       .  S
C469        C470   1.355       .  D
C469        H471   1.086       .  S
C470        H472   1.086       .  S
C473        C474   1.348       .  D
C473        H475   1.087       .  S
C474        H476   1.087       .  S
C477        C478   1.333       .  D
C477        H479   1.088       .  S
C478        H480   1.087       .  S
C481        C482   1.357       .  D
C481        H483   1.087       .  S
C482        H484   1.086       .  S
C485        C486   1.335   1_545  D
C485        H487   1.088       .  S
C486        H488   1.087       .  S
C489        C490   1.346       .  D
C489        H491   1.086       .  S
C490        H492   1.086       .  S
C493        C494   1.349   1_545  D
C493        H495   1.087       .  S
C494        H496   1.087       .  S
C497        C498   1.357       .  D
C497        H499   1.086       .  S
C498        H500   1.086       .  S
C501        C502   1.335       .  D
C501        H503   1.087       .  S
C502        H504   1.088       .  S
C505        C506   1.338       .  D
C505        H507   1.088       .  S
C506        H508   1.087       .  S
C509        C510   1.356   1_545  D
C509        H511   1.086       .  S
C510        H512   1.086   1_565  S
C513        C514   1.353   1_655  D
C513        H515   1.087   1_655  S
C514        H516   1.086       .  S
C517        C518   1.340       .  D
C517        H519   1.088       .  S
C518        H520   1.087       .  S
C521        C522   1.350       .  D
C521        H523   1.087       .  S
C522        H524   1.086       .  S
C525        C526   1.354       .  D
C525        H527   1.086       .  S
C526        H528   1.086       .  S
C529        C530   1.359       .  D
C529        H531   1.086       .  S
C530        H532   1.086       .  S
C533        C534   1.351       .  D
C533        H535   1.086       .  S
C534        H536   1.086       .  S
C537        C538   1.347       .  D
C537        H539   1.087       .  S
C538        H540   1.087       .  S
C541        C542   1.334       .  D
C541        H543   1.087       .  S
C542        H544   1.088       .  S
C545        C546   1.360       .  D
C545        H547   1.086       .  S
C546        H548   1.086       .  S
C549        C550   1.356       .  D
C549        H551   1.086       .  S
C550        H552   1.086       .  S
C553        C554   1.332       .  D
C553        H555   1.087       .  S
C554        H556   1.087       .  S
C557        C558   1.331       .  D
C557        H559   1.087       .  S
C558        H560   1.088       .  S
C561        C562   1.360   1_565  D
C561        H563   1.086   1_565  S
C562        H564   1.086       .  S
C565        C566   1.352   1_655  D
C565        H567   1.086       .  S
C566        H568   1.087   1_455  S
C569        C570   1.333       .  D
C569        H571   1.087       .  S
C570        H572   1.088       .  S
C573        C574   1.346       .  D
C573        H575   1.087       .  S
C574        H576   1.087       .  S
C577        C578   1.337   1_556  D
C577        H579   1.088       .  S
C578        H580   1.087       .  S
C581        C582   1.353       .  D
C581        H583   1.087       .  S
C582        H584   1.087       .  S
C585        C586   1.360       .  D
C585        H587   1.086       .  S
C586        H588   1.086       .  S
C589        C590   1.350       .  D
C589        H591   1.087       .  S
C590        H592   1.087       .  S
C593        C594   1.355       .  D
C593        H595   1.087       .  S
C594        H596   1.086       .  S
C597        C598   1.338       .  D
C597        H599   1.087       .  S
C598        H600   1.087       .  S
C601        C602   1.336       .  D
C601        H603   1.087       .  S
C602        H604   1.087       .  S
C605        C606   1.353       .  D
C605        H607   1.086       .  S
C606        H608   1.086       .  S
C609        C610   1.353       .  D
C609        H611   1.087       .  S
C610        H612   1.086       .  S
