geometry optimzed in LAMMPS
_audit_creation_date              2020-11-30 
_audit_creation_method            'lammps2cif' 
_symmetry_space_group_name_H-M    'P1' 
_symmetry_Int_Tables_number       1 
_symmetry_cell_setting            triclinic 
loop_ 
_symmetry_equiv_pos_as_xyz 
  x,y,z 
_cell_length_a                    48.69616709 
_cell_length_b                    49.090988158515984 
_cell_length_c                    36.07433354277453 
_cell_angle_alpha                 90.0217397223748 
_cell_angle_beta                  89.8750637128707 
_cell_angle_gamma                 120.89400553752135 
loop_ 
_atom_site_label 
_atom_site_type_symbol 
_atom_site_fract_x 
_atom_site_fract_y 
_atom_site_fract_z 
_atom_site_charge 
O1          O  0.58215109  0.71414069  0.41186265    -0.85000
O2          O  0.57554753  0.68628634  0.48065521    -0.82000
C3          C  0.57003201  0.70436076  0.49993243     0.98500
O4          O  0.54377862  0.70332112  0.49604505    -0.82000
O5          O  0.48660279  0.69087002  0.46401291    -0.84700
C6          C  0.48863481  0.70767859  0.43641245     1.03000
O7          O  0.50114677  0.70623313  0.40632532    -0.77500
O8          O  0.54722020  0.70209664  0.36667379    -0.77600
C9          C  0.57381860  0.72116275  0.38186335     1.03000
O10         O  0.55721586  0.65389627  0.37788865    -0.85000
O11         O  0.54008702  0.62564506  0.44673029    -0.82000
C12         C  0.52584680  0.61698473  0.47760184     0.98500
O13         O  0.51974838  0.63522474  0.49612673    -0.82100
O14         O  0.46524608  0.62492667  0.46190266    -0.84700
C15         C  0.44890884  0.62103928  0.43316997     1.03000
O16         O  0.46069727  0.63902445  0.40536411    -0.77500
O17         O  0.50639420  0.63287602  0.36756327    -0.77600
C18         C  0.53232115  0.63383134  0.36108799     1.02900
Cr19       Cr  0.56080461  0.66990194  0.42956537     1.93700
Cr20       Cr  0.50546867  0.66415238  0.47597916     1.93200
Cr21       Cr  0.50541982  0.66987245  0.38985328     1.39100
O22         O  0.52356022  0.66818054  0.43181877    -1.22700
O23         O  0.68996192  0.58259522  0.13940717    -0.85000
O24         O  0.69742061  0.58329535  0.06420933    -0.82000
C25         C  0.69526510  0.57318965  0.03165117     0.98500
O26         O  0.67375849  0.54523960  0.02352191    -0.82000
O27         O  0.68857860  0.50593179  0.06294451    -0.84700
C28         C  0.69219434  0.49190601  0.09022155     1.03000
O29         O  0.67504119  0.48589950  0.11913908    -0.77500
O30         O  0.69767886  0.54334243  0.15231980    -0.77600
C31         C  0.70712320  0.57248427  0.15259327     1.03000
O32         O  0.62186726  0.55319248  0.12932721    -0.85000
O33         O  0.62957555  0.55715380  0.05436910    -0.82000
C34         C  0.60689759  0.53094763  0.04247461     0.98500
O35         O  0.60810168  0.50591739  0.04522338    -0.82100
O36         O  0.62214164  0.46318307  0.07584363    -0.84700
C37         C  0.60466714  0.45320236  0.10429322     1.03000
O38         O  0.61016436  0.47116454  0.13191123    -0.77500
O39         O  0.63364612  0.52864289  0.17147298    -0.77600
C40         C  0.61916341  0.54291671  0.16185530     1.02900
Cr41       Cr  0.65927808  0.56579393  0.09702092     1.93700
Cr42       Cr  0.64863055  0.50675866  0.05531181     1.93200
Cr43       Cr  0.65387286  0.50874433  0.14041694     1.39100
O44         O  0.65387229  0.52711078  0.09776812    -1.22700
O45         O  0.73049384  0.77281237  0.77787190    -0.85000
O46         O  0.74862084  0.75375515  0.71542856    -0.82000
C47         C  0.75141387  0.77518620  0.69379964     0.98500
O48         O  0.77372615  0.80345518  0.69880121    -0.82000
O49         O  0.82482889  0.85656729  0.73224365    -0.84700
C50         C  0.81688850  0.87002763  0.75630357     1.03000
O51         O  0.80233160  0.85567596  0.78538054    -0.77500
O52         O  0.75869890  0.80388524  0.82440773    -0.77600
C53         C  0.73328153  0.79024953  0.80496462     1.03000
O54         O  0.76132564  0.74980896  0.82339203    -0.85000
O55         O  0.78826088  0.74075265  0.76075427    -0.82000
C56         C  0.80268530  0.74583248  0.73022581     0.98500
O57         O  0.80782898  0.76917957  0.70988711    -0.82100
O58         O  0.85469641  0.82070272  0.74621891    -0.84700
C59         C  0.86772998  0.83674379  0.77499670     1.03000
O60         O  0.85170334  0.84155473  0.79908509    -0.77500
O61         O  0.80885681  0.78838497  0.83776861    -0.77600
C62         C  0.78551701  0.76104370  0.84406204     1.02900
Cr63       Cr  0.75983029  0.75741912  0.76930984     1.93700
Cr64       Cr  0.81345670  0.81139654  0.72502697     1.93200
Cr65       Cr  0.80441913  0.82033864  0.80853726     1.39100
O66         O  0.79286723  0.79687079  0.76769853    -1.22700
O67         O  0.27790643  0.46312459  0.85080516    -0.85000
O68         O  0.31081177  0.52338403  0.87809740    -0.82000
C69         C  0.29753733  0.51892950  0.90947509     0.98500
O70         O  0.30399749  0.50552512  0.93500564    -0.82000
O71         O  0.32125858  0.46576125  0.96884762    -0.84700
C72         C  0.29834707  0.43758595  0.96457177     1.03000
O73         O  0.29127841  0.42544157  0.93266918    -0.77500
O74         O  0.28569678  0.42305457  0.85693401    -0.77600
C75         C  0.26748933  0.43378046  0.84999082     1.03000
O76         O  0.33451214  0.47188152  0.81504088    -0.85000
O77         O  0.36920180  0.53063909  0.84956350    -0.82000
C78         C  0.38077860  0.55095257  0.87520795     0.98500
O79         O  0.36845711  0.54420282  0.90733760    -0.82100
O80         O  0.38300646  0.50072442  0.93464187    -0.84700
C81         C  0.38318668  0.47509059  0.93592206     1.03000
O82         O  0.35884588  0.44907653  0.92635018    -0.77500
O83         O  0.35420373  0.45001839  0.85065948    -0.77600
C84         C  0.35107992  0.45901448  0.81905628     1.02900
Cr85       Cr  0.32373191  0.49587782  0.85152808     1.93700
Cr86       Cr  0.34310034  0.50226837  0.93326211     1.93200
Cr87       Cr  0.32307849  0.44008559  0.89158805     1.39100
O88         O  0.33004548  0.47931880  0.89214953    -1.22700
O89         O  0.43995085  0.28643680  0.61656987    -0.85000
O90         O  0.49906917  0.30758219  0.58569253    -0.82000
C91         C  0.49159963  0.29030568  0.55712520     0.98500
O92         O  0.47628292  0.29377535  0.53133588    -0.82000
O93         O  0.43920960  0.31263721  0.49290059    -0.84700
C94         C  0.41026332  0.29559379  0.50312153     1.03000
O95         O  0.40216911  0.29710407  0.53576188    -0.77500
O96         O  0.40579595  0.30281782  0.61048917    -0.77600
C97         C  0.41211487  0.28182619  0.62019198     1.03000
O98         O  0.45984986  0.34917531  0.64199768    -0.85000
O99         O  0.51598738  0.37119874  0.60173174    -0.82000
C100        C  0.53424729  0.37719051  0.57419985     0.98500
O101        O  0.52437706  0.36007705  0.54514707    -0.82100
O102        O  0.48556699  0.37700072  0.51215903    -0.84700
C103        C  0.46387013  0.38361646  0.51218032     1.03000
O104        O  0.43685814  0.36534869  0.52696290    -0.77500
O105        O  0.44341636  0.37115795  0.60220629    -0.77600
C106        C  0.45096977  0.36868212  0.63480595     1.02900
Cr107      Cr  0.47743900  0.32897916  0.60834951     1.93700
Cr108      Cr  0.47974156  0.33543458  0.52370119     1.93200
Cr109      Cr  0.42492945  0.33410201  0.56855554     1.39100
O110        O  0.46069938  0.33304745  0.56665665    -1.22700
O111        O  0.19258078  0.23847231  0.29309896    -0.85000
O112        O  0.13847978  0.18981732  0.26338816    -0.82000
C113        C  0.12013861  0.17590675  0.23649800     0.98500
O114        O  0.13062587  0.17135657  0.20631981    -0.82000
O115        O  0.17212493  0.22548715  0.16592421    -0.84700
C116        C  0.19698509  0.25112756  0.15708542     1.03000
O117        O  0.22312437  0.25824706  0.17209975    -0.77500
O118        O  0.20876157  0.26902371  0.24314721    -0.77600
C119        C  0.19802911  0.26352706  0.27592000     1.03000
O120        O  0.22257051  0.19940639  0.28856940    -0.85000
O121        O  0.16400574  0.14872812  0.26016906    -0.82000
C122        C  0.16599313  0.13571358  0.23060662     0.98500
O123        O  0.17645514  0.15137121  0.20112590    -0.82100
O124        O  0.21719110  0.20234295  0.16001065    -0.84700
C125        C  0.24414871  0.21070717  0.17470015     1.03000
O126        O  0.25310080  0.22741302  0.20374372    -0.77500
O127        O  0.24883938  0.24916987  0.27252217    -0.77600
C128        C  0.24742140  0.22668021  0.29065046     1.02900
Cr129      Cr  0.18079390  0.19519264  0.27275849     1.93700
Cr130      Cr  0.17554284  0.18947112  0.18659127     1.93200
Cr131      Cr  0.23057906  0.24795528  0.22310121     1.39100
O132        O  0.19511119  0.21042804  0.22757841    -1.22700
O133        O  0.44101995  0.07488801  0.06538508    -0.85000
O134        O  0.41880754  0.07703772  0.13546428    -0.82000
C135        C  0.44169747  0.08032418  0.15501797     0.98500
O136        O  0.46848583  0.10580293  0.15312038    -0.82000
O137        O  0.51779873  0.16424763  0.12465315    -0.84700
C138        C  0.53156044  0.16265586  0.09547860     1.03000
O139        O  0.51634863  0.15189026  0.06576042    -0.77500
O140        O  0.46570303  0.11220370  0.02302059    -0.77600
C141        C  0.45701530  0.08473543  0.03564774     1.03000
O142        O  0.40892913  0.10448913  0.03580217    -0.85000
O143        O  0.39708321  0.11667914  0.10682442    -0.82000
C144        C  0.40299292  0.12894395  0.13878297     0.98500
O145        O  0.42695009  0.13259486  0.15710051    -0.82100
O146        O  0.47465335  0.18740082  0.12774308    -0.84700
C147        C  0.48962075  0.20631574  0.10169329     1.03000
O148        O  0.49545571  0.19665807  0.07176316    -0.77500
O149        O  0.44131273  0.15543513  0.03086622    -0.77600
C150        C  0.41611460  0.13058708  0.02101279     1.02900
Cr151      Cr  0.41933535  0.09602772  0.08640288     1.93700
Cr152      Cr  0.47094427  0.14612889  0.13701694     1.93200
Cr153      Cr  0.47783571  0.15247181  0.05112645     1.39100
O154        O  0.45651819  0.13183789  0.09162041    -1.22700
O155        O  0.24531060  0.04131846  0.71476526    -0.85000
O156        O  0.24468949  0.04128042  0.79094068    -0.82000
C157        C  0.23340176  0.03613736  0.82334926     0.98500
O158        O  0.20503348  0.01395807  0.82952074    -0.82000
O159        O  0.16574360  0.03180647  0.79607422    -0.84700
C160        C  0.15138386  0.03754251  0.77101421     1.03000
O161        O  0.14704298  0.02463709  0.73938973    -0.77500
O162        O  0.20709217  0.05222316  0.70895505    -0.77600
C163        C  0.23605039  0.06026112  0.70602836     1.03000
O164        O  0.21532216  0.97356846  0.71496797    -0.85000
O165        O  0.21819468  0.97381241  0.79128861    -0.82000
C166        C  0.19141002  0.95026634  0.80039990     0.98500
O167        O  0.16625784  0.95159184  0.79870869    -0.82100
O168        O  0.12377922  0.96780798  0.77245023    -0.84700
C169        C  0.11523709  0.95434417  0.74118787     1.03000
O170        O  0.13489964  0.96352769  0.71464671    -0.77500
O171        O  0.19337091  0.99240911  0.67789584    -0.77600
C172        C  0.20613827  0.97579589  0.68304039     1.02900
Cr173      Cr  0.22769852  0.00709507  0.75305583     1.93700
Cr174      Cr  0.16697053  0.99209718  0.79601082     1.93200
Cr175      Cr  0.17197763  0.00770205  0.71330063     1.39100
O176        O  0.18892227  0.00227598  0.75405677    -1.22700
O177        O  0.36343412  0.91361827  0.46065013    -0.85000
O178        O  0.36264295  0.91464940  0.38490596    -0.82000
C179        C  0.35714028  0.90493565  0.35193295     0.98500
O180        O  0.33467310  0.87696483  0.34495453    -0.82000
O181        O  0.35213900  0.83653952  0.37747340    -0.84700
C182        C  0.35747571  0.82184583  0.40247129     1.03000
O183        O  0.34295741  0.81592513  0.43336232    -0.77500
O184        O  0.37118199  0.87351868  0.46698805    -0.77600
C185        C  0.38095697  0.90260680  0.46976001     1.03000
O186        O  0.29508781  0.88609443  0.46161697    -0.85000
O187        O  0.29457382  0.88954575  0.38571685    -0.82000
C188        C  0.27079267  0.86336500  0.37552201     0.98500
O189        O  0.27179751  0.83817213  0.37581463    -0.82100
O190        O  0.28712363  0.79414483  0.40001000    -0.84700
C191        C  0.27334895  0.78498268  0.43123128     1.03000
O192        O  0.28129949  0.80453368  0.45748221    -0.77500
O193        O  0.31127115  0.86103230  0.49733129    -0.77600
C194        C  0.29628220  0.87559118  0.49306288     1.02900
Cr195      Cr  0.32841524  0.89775249  0.42303232     1.93700
Cr196      Cr  0.31222135  0.83813413  0.37780670     1.93200
Cr197      Cr  0.32617163  0.84021777  0.46070679     1.39100
O198        O  0.32230971  0.85883996  0.42060869    -1.22700
O199        O  0.56026557  0.86421791  0.85289889    -0.85000
O200        O  0.51402669  0.80872487  0.88376777    -0.82000
C201        C  0.49830964  0.79150183  0.91080461     0.98500
O202        O  0.48822333  0.80196070  0.93603946    -0.82000
O203        O  0.53691450  0.84892436  0.97736931    -0.84700
C204        C  0.56094162  0.87521405  0.98619625     1.03000
O205        O  0.56622685  0.90016082  0.96965917    -0.77500
O206        O  0.58650180  0.89008466  0.90318752    -0.77600
C207        C  0.58490626  0.87583481  0.87350501     1.03000
O208        O  0.51279142  0.88297220  0.84208639    -0.85000
O209        O  0.46616514  0.82578828  0.87260204    -0.82000
C210        C  0.44838214  0.82721186  0.89738116     0.98500
O211        O  0.45963618  0.83976140  0.92849030    -0.82100
O212        O  0.50517930  0.88540059  0.97392247    -0.84700
C213        C  0.51143870  0.91119311  0.95860832     1.03000
O214        O  0.52891741  0.92113322  0.93001348    -0.77500
O215        O  0.55850644  0.91985180  0.86434673    -0.77600
C216        C  0.53695969  0.91056390  0.84003385     1.02900
Cr217      Cr  0.51403956  0.84711752  0.86652008     1.93700
Cr218      Cr  0.49961580  0.84574207  0.95067315     1.93200
Cr219      Cr  0.55703960  0.90459677  0.91632597     1.39100
O220        O  0.52328575  0.86553509  0.91093880    -1.22700
O221        O  0.77303657  0.97236369  0.31611791    -0.85000
O222        O  0.81499278  0.96258535  0.27734251    -0.82000
C223        C  0.82896447  0.95962886  0.24970656     0.98500
O224        O  0.83263213  0.97518962  0.22011867    -0.82000
O225        O  0.77433598  0.95886126  0.18582268    -0.84700
C226        C  0.74793588  0.95717367  0.18021749     1.03000
O227        O  0.74064338  0.97436351  0.19887464    -0.77500
O228        O  0.73714921  0.95486527  0.27155026    -0.77600
C229        C  0.74634491  0.95123070  0.30289312     1.03000
O230        O  0.81472168  0.04025345  0.30492908    -0.85000
O231        O  0.85915910  0.02935130  0.26925379    -0.82000
C232        C  0.86931225  0.04566443  0.23977310     0.98500
O233        O  0.85073560  0.04069734  0.21319628    -0.82100
O234        O  0.79603792  0.02549906  0.17715631    -0.84700
C235        C  0.78899472  0.04445014  0.19229010     1.03000
O236        O  0.77569923  0.03840622  0.22374833    -0.77500
O237        O  0.76332916  0.01879964  0.29644754    -0.77600
C238        C  0.78889456  0.03922390  0.31223505     1.02900
Cr239      Cr  0.81400558  0.00120544  0.28850177     1.93700
Cr240      Cr  0.81193050  0.99968725  0.20263245     1.93200
Cr241      Cr  0.75696326  0.99669692  0.24752385     1.39100
O242        O  0.79444951  0.99904664  0.24615154    -1.22700
O243        O  0.61320270  0.12458663  0.53087672    -0.85000
O244        O  0.63997265  0.18435660  0.55876431    -0.82000
C245        C  0.62553662  0.17917911  0.58953262     0.98500
O246        O  0.63163982  0.16593255  0.61554593    -0.82000
O247        O  0.65357104  0.13062191  0.65233406    -0.84700
C248        C  0.63372175  0.10131900  0.64788102     1.03000
O249        O  0.62817994  0.08949570  0.61583516    -0.77500
O250        O  0.62421670  0.08680853  0.54001089    -0.77600
C251        C  0.60508743  0.09580101  0.53020272     1.03000
O252        O  0.67265904  0.13851870  0.49901512    -0.85000
O253        O  0.70168053  0.19675642  0.53432143    -0.82000
C254        C  0.71009787  0.21734450  0.55943564     0.98500
O255        O  0.69603271  0.20987932  0.59063838    -0.82100
O256        O  0.71496266  0.17086272  0.61982845    -0.84700
C257        C  0.71863380  0.14731310  0.62205605     1.03000
O258        O  0.69683615  0.11989063  0.61201656    -0.77500
O259        O  0.69370174  0.11905154  0.53618665    -0.77600
C260        C  0.69073334  0.12749118  0.50422282     1.02900
Cr261      Cr  0.65750552  0.15981862  0.53398392     1.93700
Cr262      Cr  0.67312687  0.16741862  0.61647032     1.93200
Cr263      Cr  0.66095071  0.10687312  0.57585965     1.39100
O264        O  0.66377268  0.14445800  0.57549428    -1.22700
O265        O  0.10554438  0.40380473  0.41741010    -0.85000
O266        O  0.10544823  0.41027761  0.49283464    -0.82000
C267        C  0.11377994  0.42314769  0.52424693     0.98500
O268        O  0.12636146  0.45289429  0.52753000    -0.82000
O269        O  0.18520283  0.48159275  0.49235367    -0.84700
C270        C  0.20563533  0.49145251  0.46669851     1.03000
O271        O  0.19839003  0.49597863  0.43453833    -0.77500
O272        O  0.15747425  0.43532273  0.41049027    -0.77600
C273        C  0.13279715  0.40797395  0.40944715     1.03000
O274        O  0.07820272  0.44375970  0.40999561    -0.85000
O275        O  0.07493895  0.44716307  0.48550455    -0.82000
C276        C  0.08447350  0.47583377  0.49335567     0.98500
O277        O  0.11352854  0.49700543  0.49108560    -0.82100
O278        O  0.17358918  0.52945674  0.46180821    -0.84700
C279        C  0.16886534  0.53632812  0.42942481     1.03000
O280        O  0.15603797  0.51499376  0.40501621    -0.77500
O281        O  0.11881632  0.45551042  0.37363760    -0.77600
C282        C  0.09021932  0.44870660  0.37799956     1.02900
Cr283      Cr  0.09412802  0.42906134  0.45135021     1.93700
Cr284      Cr  0.14848559  0.48822913  0.49010298     1.93200
Cr285      Cr  0.15583154  0.47462524  0.40907192     1.39100
O286        O  0.13267092  0.46389111  0.45022825    -1.22700
O287        O  0.91604781  0.38215320  0.10256652    -0.85000
O288        O  0.90650593  0.34960586  0.16767346    -0.82000
C289        C  0.89986782  0.36583609  0.18903082     0.98500
O290        O  0.87380343  0.36511369  0.18520215    -0.82000
O291        O  0.81771066  0.35545580  0.15339209    -0.84700
C292        C  0.82212741  0.37597554  0.12918525     1.03000
O293        O  0.83705888  0.37833649  0.09953869    -0.77500
O294        O  0.88336082  0.37621391  0.05685476    -0.77600
C295        C  0.91017578  0.39227583  0.07337029     1.03000
O296        O  0.89020240  0.32471155  0.06158083    -0.85000
O297        O  0.87147787  0.29142571  0.12685885    -0.82000
C298        C  0.85718555  0.28088107  0.15731343     0.98500
O299        O  0.85047446  0.29771745  0.17769670    -0.82100
O300        O  0.79789667  0.29034620  0.14226788    -0.84700
C301        C  0.78126569  0.29066905  0.11584129     1.03000
O302        O  0.79363455  0.31164859  0.09059663    -0.77500
O303        O  0.84003790  0.30738186  0.04973920    -0.77600
C304        C  0.86539922  0.30728068  0.04286050     1.02900
Cr305      Cr  0.89312708  0.33691785  0.11494677     1.93700
Cr306      Cr  0.83667781  0.32802804  0.16123943     1.93200
Cr307      Cr  0.83991909  0.34279358  0.07722103     1.39100
O308        O  0.85637094  0.33615883  0.11775926    -1.22700
O309        O  0.01821469  0.24400817  0.82184373    -0.85000
O310        O  0.01497192  0.24341917  0.74624030    -0.82000
C311        C  0.01076395  0.23236998  0.71389407     0.98500
O312        O  0.99125227  0.20323488  0.70816931    -0.82000
O313        O  0.01387017  0.16832260  0.74331838    -0.84700
C314        C  0.02006025  0.15424591  0.76818038     1.03000
O315        O  0.00555144  0.14790278  0.79908618    -0.77500
O316        O  0.03054697  0.20698100  0.82927642    -0.77600
C317        C  0.03812097  0.23564745  0.83028677     1.03000
O318        O  0.94882896  0.21027521  0.82508124    -0.85000
O319        O  0.94606184  0.21126152  0.74920466    -0.82000
C320        C  0.92505999  0.18397084  0.73764707     0.98500
O321        O  0.92954367  0.16094076  0.73867283    -0.82100
O322        O  0.94952932  0.12249095  0.76632614    -0.84700
C323        C  0.93455105  0.11364787  0.79687240     1.03000
O324        O  0.94266325  0.13297164  0.82349211    -0.77500
O325        O  0.97037903  0.19080963  0.86146746    -0.77600
C326        C  0.95263884  0.20238766  0.85698156     1.02900
Cr327      Cr  0.98181690  0.22414820  0.78560269     1.93700
Cr328      Cr  0.97187444  0.16556294  0.74243308     1.93200
Cr329      Cr  0.98656551  0.17089730  0.82523094     1.39100
O330        O  0.98006398  0.18706232  0.78442738    -1.22700
O331        O  0.09544581  0.60904400  0.93887796    -0.85000
O332        O  0.15666817  0.63255744  0.91237383    -0.82000
C333        C  0.15491853  0.62155847  0.88012461     0.98500
O334        O  0.14387741  0.62977673  0.85354547    -0.82000
O335        O  0.10903823  0.65268940  0.81765807    -0.84700
C336        C  0.07945751  0.63261166  0.82162307     1.03000
O337        O  0.06692610  0.62671132  0.85347750    -0.77500
O338        O  0.06168758  0.62536482  0.92982807    -0.77600
C339        C  0.06736847  0.60418510  0.94009004     1.03000
O340        O  0.11429536  0.67052199  0.96984200    -0.85000
O341        O  0.17438819  0.69468829  0.93809571    -0.82000
C342        C  0.19552595  0.70353502  0.91312741     0.98500
O343        O  0.18783802  0.69193595  0.88084316    -0.82100
O344        O  0.15003291  0.71354649  0.85217181    -0.84700
C345        C  0.12615957  0.71682216  0.84819236     1.03000
O346        O  0.09826047  0.69412689  0.85472361    -0.77500
O347        O  0.09768664  0.69331565  0.93091002    -0.77600
C348        C  0.10522248  0.69004564  0.96332458     1.02900
Cr349      Cr  0.13407331  0.65235876  0.93649060     1.93700
Cr350      Cr  0.14564525  0.67112736  0.85415380     1.93200
Cr351      Cr  0.08422480  0.65989807  0.89247925     1.39100
O352        O  0.12128505  0.66096969  0.89439982    -1.22700
O353        O  0.96021555  0.78537685  0.16209993    -0.85000
O354        O  0.95664092  0.82870637  0.20407832    -0.82000
C355        C  0.95723453  0.84334680  0.23284643     0.98500
O356        O  0.97820001  0.85011264  0.25774637    -0.82000
O357        O  0.96921155  0.79502833  0.29144330    -0.84700
C358        C  0.96817710  0.76904470  0.29557177     1.03000
O359        O  0.98424584  0.76208802  0.27428702    -0.77500
O360        O  0.95164433  0.75407410  0.20972553    -0.77600
C361        C  0.94170830  0.76059987  0.18082018     1.03000
O362        O  0.02973644  0.82847228  0.15664542    -0.85000
O363        O  0.02363012  0.87477171  0.19681576    -0.82000
C364        C  0.04412278  0.88716486  0.22271573     0.98500
O365        O  0.04478876  0.87021753  0.24834039    -0.82100
O366        O  0.03750428  0.81817792  0.28394066    -0.84700
C367        C  0.05286394  0.80847660  0.26484142     1.03000
O368        O  0.04245568  0.79490389  0.23411274    -0.77500
O369        O  0.00965937  0.77810980  0.16831618    -0.77600
C370        C  0.02810947  0.80250242  0.14948525     1.02900
Cr371      Cr  0.99344025  0.82830145  0.18287484     1.93700
Cr372      Cr  0.00669953  0.83179171  0.26711709     1.93200
Cr373      Cr  0.99715326  0.77510810  0.22164501     1.39100
O374        O  0.99934348  0.81214071  0.22392257    -1.22700
O375        O  0.88351834  0.52272760  0.49374101    -0.85000
O376        O  0.83612909  0.47516541  0.53568040    -0.82000
C377        C  0.81923584  0.46264067  0.56424172     0.98500
O378        O  0.81125382  0.47816747  0.58517052    -0.82000
O379        O  0.86391896  0.52448660  0.62240052    -0.84700
C380        C  0.89123658  0.54866400  0.62720024     1.03000
O381        O  0.90149921  0.57165531  0.60487850    -0.77500
O382        O  0.91229933  0.54587239  0.54312868    -0.77600
C383        C  0.90695975  0.52915162  0.51452256     1.03000
O384        O  0.84235851  0.54834789  0.48130517    -0.85000
O385        O  0.79360340  0.49680760  0.51841101    -0.82000
C386        C  0.77911486  0.50594862  0.53934803     0.98500
O387        O  0.79307277  0.52366121  0.56675947    -0.82100
O388        O  0.84403097  0.56991415  0.60626875    -0.84700
C389        C  0.85672612  0.59506024  0.58677854     1.03000
O390        O  0.87339883  0.59796933  0.55871247    -0.77500
O391        O  0.89230487  0.58027643  0.49677907    -0.77600
C392        C  0.86866048  0.57380900  0.47637475     1.02900
Cr393      Cr  0.83995974  0.51272190  0.51035688     1.93700
Cr394      Cr  0.82999781  0.52501080  0.59201596     1.93200
Cr395      Cr  0.89195059  0.57117919  0.55083868     1.39100
O396        O  0.85362891  0.53618278  0.55116264    -1.22700
C397        C  0.92761372  0.69444815  0.35789876     0.19100
C398        C  0.91113308  0.66177699  0.35021272    -0.19000
C399        C  0.89915852  0.63943254  0.37891377    -0.11300
C400        C  0.90393011  0.64935691  0.41608386     0.21300
C401        C  0.92002421  0.68205527  0.42381346    -0.20600
C402        C  0.93154178  0.70443032  0.39503609    -0.11500
C403        C  0.89586421  0.62655082  0.44712892    -0.15600
C404        C  0.87260539  0.59566236  0.44587347    -0.29500
C405        C  0.94338087  0.71712174  0.32678949    -0.03800
C406        C  0.94965184  0.74726882  0.32636287    -0.40300
H407        H  0.90821248  0.65351584  0.32185505     0.12500
H408        H  0.88766977  0.61451431  0.37188927     0.12100
H409        H  0.92442232  0.69031534  0.45223684     0.11500
H410        H  0.94484576  0.72943066  0.40196303     0.11800
H411        H  0.91012263  0.63564686  0.47217909     0.14500
H412        H  0.85626646  0.58639907  0.42256913     0.13300
H413        H  0.95005936  0.70832963  0.30284265     0.11000
H414        H  0.94137066  0.75605869  0.34873646     0.13000
C415        C  0.06399265  0.76604231  0.08403022     0.19100
C416        C  0.07423146  0.74446677  0.09049755    -0.19000
C417        C  0.08377841  0.73246436  0.06130129    -0.11300
C418        C  0.08329014  0.74167034  0.02442886     0.21300
C419        C  0.07391409  0.76406389  0.01804273    -0.20600
C420        C  0.06443960  0.77622554  0.04748333    -0.11500
C421        C  0.08991430  0.72675384  0.99199635    -0.15600
C422        C  0.10240430  0.70781231  0.99488999    -0.29500
C423        C  0.04947733  0.77387735  0.11558618    -0.03800
C424        C  0.04620205  0.79952953  0.11804975    -0.40300
H425        H  0.07386596  0.73599217  0.11832719     0.12500
H426        H  0.09011335  0.71497149  0.06807349     0.12100
H427        H  0.07303911  0.77151007  0.99002267     0.11500
H428        H  0.05609147  0.79234442  0.04133927     0.11800
H429        H  0.08323231  0.73073434  0.96467562     0.14500
H430        H  0.11017917  0.70404590  0.02149815     0.13300
H431        H  0.04066694  0.75699916  0.13840271     0.11000
H432        H  0.05640840  0.81799617  0.09708776     0.13000
C433        C  0.00622875  0.59266091  0.75519861     0.19100
C434        C  0.97316970  0.57122138  0.75932218    -0.19000
C435        C  0.95203839  0.56406952  0.72950779    -0.11300
C436        C  0.96349074  0.57836605  0.69463634     0.21300
C437        C  0.99657741  0.59942554  0.69036841    -0.20600
C438        C  0.01768536  0.60649921  0.72008735    -0.11500
C439        C  0.94199372  0.57392811  0.66271133    -0.15600
C440        C  0.91100145  0.55053830  0.65959565    -0.29500
C441        C  0.02721843  0.60202507  0.78881743    -0.03800
C442        C  0.05955587  0.61840688  0.78796536    -0.40300
H443        H  0.96350031  0.56044738  0.78604027     0.12500
H444        H  0.92674759  0.54821429  0.73439061     0.12100
H445        H  0.00615051  0.61104678  0.66398641     0.11500
H446        H  0.04269073  0.62372935  0.71551168     0.11800
H447        H  0.95256177  0.59096374  0.64018514     0.14500
H448        H  0.89995500  0.53213776  0.68051723     0.13300
H449        H  0.01535763  0.59633715  0.81565529     0.11000
H450        H  0.07214136  0.62385711  0.76169294     0.13000
C451        C  0.91101957  0.23479013  0.92064653     0.19100
C452        C  0.88794358  0.24360786  0.91569675    -0.19000
C453        C  0.88024422  0.25788250  0.94445665    -0.11300
C454        C  0.89567958  0.26391782  0.97900393     0.21300
C455        C  0.91825147  0.25450435  0.98417364    -0.20600
C456        C  0.92581898  0.24011792  0.95554979    -0.11500
C457        C  0.89118382  0.28212587  0.00933775    -0.15600
C458        C  0.86664620  0.28752956  0.01226435    -0.29500
C459        C  0.92116515  0.22317882  0.88790427    -0.03800
C460        C  0.93823420  0.20851254  0.89003548    -0.40300
H461        H  0.87635125  0.24015735  0.88907440     0.12500
H462        H  0.86316546  0.26520845  0.93894326     0.12100
H463        H  0.93076707  0.25903271  0.01033009     0.11500
H464        H  0.94426812  0.23455108  0.96059787     0.11800
H465        H  0.90937543  0.29160838  0.03083079     0.14500
H466        H  0.84702505  0.27703291  0.99266850     0.13300
H467        H  0.91524729  0.22805764  0.86062810     0.11000
H468        H  0.94348690  0.20227213  0.91683016     0.13000
C469        C  0.01503610  0.51951353  0.97967292     0.19100
C470        C  0.02044182  0.50071184  0.00434098    -0.19000
C471        C  0.99480079  0.47286351  0.01903965    -0.11300
C472        C  0.96305379  0.46316790  0.00929266     0.21300
C473        C  0.95772119  0.48122415  0.98341231    -0.20600
C474        C  0.98336972  0.50910578  0.96873555    -0.11500
C475        C  0.93522098  0.43389842  0.02477722    -0.15600
C476        C  0.93619230  0.42245703  0.05822885    -0.29500
C477        C  0.04289488  0.54952191  0.96557098    -0.03800
C478        C  0.04022701  0.57404842  0.95390445    -0.40300
H479        H  0.04458506  0.50777444  0.01259024     0.12500
H480        H  0.00005022  0.45884014  0.03761475     0.12100
H481        H  0.93360081  0.47388879  0.97477773     0.11500
H482        H  0.97821827  0.52213623  0.94853379     0.11800
H483        H  0.91336704  0.42180278  0.00855547     0.14500
H484        H  0.95743857  0.43524567  0.07528010     0.13300
H485        H  0.06639044  0.55199914  0.96629598     0.11000
H486        H  0.01718661  0.57248104  0.95488427     0.13000
C487        C  0.00804121  0.47750568  0.51126270     0.19100
C488        C  0.98049768  0.46695624  0.48974960    -0.19000
C489        C  0.96057092  0.47922598  0.49554781    -0.11300
C490        C  0.96790863  0.50221238  0.52320302     0.21300
C491        C  0.99459716  0.51149103  0.54591138    -0.20600
C492        C  0.01453971  0.49931126  0.54001968    -0.11500
C493        C  0.94794446  0.51638482  0.53014025    -0.15600
C494        C  0.92774720  0.51667658  0.50508068    -0.29500
C495        C  0.03009442  0.46616080  0.50242168    -0.03800
C496        C  0.06185654  0.48519782  0.50588529    -0.40300
H497        H  0.97482571  0.44977508  0.46786057     0.12500
H498        H  0.93944574  0.47040038  0.47849046     0.12100
H499        H  0.00029664  0.52856675  0.56794396     0.11500
H500        H  0.03504707  0.50703804  0.55794700     0.11800
H501        H  0.95022599  0.52732883  0.55704940     0.14500
H502        H  0.92525218  0.50649971  0.47773891     0.13300
H503        H  0.02036636  0.44297090  0.48962284     0.11000
H504        H  0.07185763  0.50934181  0.51584819     0.13000
C505        C  0.05789388  0.30726115  0.65126675     0.19100
C506        C  0.06821781  0.33955643  0.65611452    -0.19000
C507        C  0.07992947  0.36084591  0.62620126    -0.11300
C508        C  0.08188677  0.35040184  0.59045120     0.21300
C509        C  0.07214068  0.31826028  0.58572423    -0.20600
C510        C  0.06050496  0.29699248  0.61563472    -0.11500
C511        C  0.09190161  0.37146242  0.55702596    -0.15600
C512        C  0.10747591  0.40350050  0.55806019    -0.29500
C513        C  0.04414584  0.28534526  0.68391351    -0.03800
C514        C  0.02735540  0.25332487  0.68164196    -0.40300
H515        H  0.06656479  0.34829212  0.68311627     0.12500
H516        H  0.08645766  0.38514828  0.63121417     0.12100
H517        H  0.07334104  0.30944790  0.55858943     0.11500
H518        H  0.05366193  0.27264593  0.61040793     0.11800
H519        H  0.08564881  0.35983980  0.53014255     0.14500
H520        H  0.11498169  0.41591307  0.58431279     0.13300
H521        H  0.04640444  0.29615815  0.71090098     0.11000
H522        H  0.02342118  0.24171195  0.65500997     0.13000
C523        C  0.97397268  0.40342484  0.25319052     0.19100
C524        C  0.00665744  0.41515204  0.24722329    -0.19000
C525        C  0.02831063  0.42616643  0.27673057    -0.11300
C526        C  0.01771006  0.42547586  0.31331245     0.21300
C527        C  0.98505012  0.41442887  0.31908905    -0.20600
C528        C  0.96339868  0.40353481  0.28946258    -0.11500
C529        C  0.03907636  0.43383575  0.34638317    -0.15600
C530        C  0.07081516  0.44503442  0.34476874    -0.29500
C531        C  0.95154783  0.38848252  0.22154058    -0.03800
C532        C  0.92183942  0.38402712  0.21979558    -0.40300
H533        H  0.01542364  0.41514206  0.21959221     0.12500
H534        H  0.05299250  0.43417116  0.27043285     0.12100
H535        H  0.97603415  0.41337783  0.34685968     0.11500
H536        H  0.93829586  0.39400743  0.29536783     0.11800
H537        H  0.02776219  0.42915248  0.37352299     0.14500
H538        H  0.08317577  0.45031323  0.31839429     0.13300
H539        H  0.96000752  0.38045963  0.19848484     0.11000
H540        H  0.91331646  0.39339587  0.24123371     0.13000
C541        C  0.85857972  0.19586484  0.69965627     0.19100
C542        C  0.82996665  0.16654461  0.70401010    -0.19000
C543        C  0.80193834  0.16114312  0.68710371    -0.11300
C544        C  0.80194085  0.18499457  0.66559935     0.21300
C545        C  0.83019181  0.21462897  0.66237751    -0.20600
C546        C  0.85832039  0.22002700  0.67927927    -0.11500
C547        C  0.77252881  0.18017840  0.64777078    -0.15600
C548        C  0.74828291  0.15142609  0.63777600    -0.29500
C549        C  0.88885234  0.20189171  0.71641907    -0.03800
C550        C  0.89494782  0.17847299  0.72182189    -0.40300
H551        H  0.82894530  0.14788965  0.72101266     0.12500
H552        H  0.78023896  0.13855116  0.69170204     0.12100
H553        H  0.83055103  0.23352499  0.64645828     0.11500
H554        H  0.88000263  0.24293146  0.67601851     0.11800
H555        H  0.77105397  0.20115611  0.64217122     0.14500
H556        H  0.75004165  0.13040000  0.64112032     0.13300
H557        H  0.90708758  0.22625691  0.72274926     0.11000
H558        H  0.87774059  0.15438158  0.71328817     0.13000
C559        C  0.79663391  0.37499235  0.55785165     0.19100
C560        C  0.78948990  0.35427131  0.52778017    -0.19000
C561        C  0.77321558  0.32136050  0.53322490    -0.11300
C562        C  0.76407632  0.30849254  0.56916336     0.21300
C563        C  0.77273586  0.32940467  0.59932415    -0.20600
C564        C  0.78889897  0.36222417  0.59385133    -0.11500
C565        C  0.74350521  0.27381258  0.57664363    -0.15600
C566        C  0.73464139  0.25070291  0.55116996    -0.29500
C567        C  0.81140641  0.40957814  0.55061113    -0.03800
C568        C  0.80739775  0.42906598  0.57332186    -0.40300
H569        H  0.79549842  0.36352684  0.49978056     0.12500
H570        H  0.76706956  0.30639643  0.50904804     0.12100
H571        H  0.76634862  0.32028351  0.62733666     0.11500
H572        H  0.79507288  0.37740532  0.61789192     0.11800
H573        H  0.73392803  0.26704295  0.60456818     0.14500
H574        H  0.74416547  0.25612768  0.52323352     0.13300
H575        H  0.82392205  0.41878417  0.52443092     0.11000
H576        H  0.79330260  0.41985852  0.59848283     0.13000
C577        C  0.83797899  0.19467094  0.15886123     0.19100
C578        C  0.82776667  0.17091084  0.13168364    -0.19000
C579        C  0.81459665  0.13908149  0.14194572    -0.11300
C580        C  0.81163923  0.13074567  0.17963999     0.21300
C581        C  0.82266600  0.15459633  0.20658480    -0.20600
C582        C  0.83606140  0.18622980  0.19639158    -0.11500
C583        C  0.79703228  0.09767932  0.19267201    -0.15600
C584        C  0.79765693  0.07449521  0.17364207    -0.29500
C585        C  0.84995964  0.22790395  0.14747010    -0.03800
C586        C  0.84810454  0.24888319  0.16978876    -0.40300
H587        H  0.82924687  0.17690469  0.10256891     0.12500
H588        H  0.80604574  0.12113133  0.12051413     0.12100
H589        H  0.82110206  0.14874049  0.23575810     0.11500
H590        H  0.84493732  0.20391183  0.21810297     0.11800
H591        H  0.78828658  0.09313018  0.22108928     0.14500
H592        H  0.80802082  0.07882081  0.14604583     0.13300
H593        H  0.85851069  0.23466505  0.11917256     0.11000
H594        H  0.83749193  0.24191622  0.19717159     0.13000
C595        C  0.75652184  0.07898166  0.37787511     0.19100
C596        C  0.73359289  0.08794061  0.37372461    -0.19000
C597        C  0.72407922  0.09910787  0.40386101    -0.11300
C598        C  0.73723869  0.10158004  0.43932922     0.21300
C599        C  0.76094433  0.09348790  0.44328752    -0.20600
C600        C  0.77062637  0.08243793  0.41291514    -0.11500
C601        C  0.72474962  0.10961178  0.47304620    -0.15600
C602        C  0.70699347  0.12352973  0.47163597    -0.29500
C603        C  0.76171667  0.06246537  0.34632373    -0.03800
C604        C  0.78789951  0.06012617  0.34136938    -0.40300
H605        H  0.72207574  0.08521354  0.34718906     0.12500
H606        H  0.70521553  0.10414312  0.39929253     0.12100
H607        H  0.77134421  0.09482810  0.47023407     0.11500
H608        H  0.78787347  0.07513128  0.41742648     0.11800
H609        H  0.72950835  0.10288143  0.49989504     0.14500
H610        H  0.70308492  0.13166485  0.44536387     0.13300
H611        H  0.74238931  0.05101644  0.32632059     0.11000
H612        H  0.80841050  0.07279201  0.35952078     0.13000
C613        C  0.91652116  0.89169518  0.24994806     0.19100
C614        C  0.90801702  0.90422897  0.27975775    -0.19000
C615        C  0.89015760  0.91890161  0.27376547    -0.11300
C616        C  0.88089046  0.92173976  0.23763055     0.21300
C617        C  0.89004969  0.90986292  0.20782180    -0.20600
C618        C  0.90748202  0.89486605  0.21384045    -0.11500
C619        C  0.86356275  0.93876409  0.22994265    -0.15600
C620        C  0.84275252  0.93913906  0.25409784    -0.29500
C621        C  0.93652536  0.87722587  0.25637490    -0.03800
C622        C  0.93371119  0.85371579  0.23466046    -0.40300
H623        H  0.91525048  0.90270349  0.30769006     0.12500
H624        H  0.88447807  0.92880857  0.29730667     0.12100
H625        H  0.88379303  0.91231360  0.17972303     0.11500
H626        H  0.91468502  0.88664254  0.18997779     0.11800
H627        H  0.86822224  0.95142046  0.20380589     0.14500
H628        H  0.83723199  0.92557587  0.27964255     0.13300
H629        H  0.95456819  0.88692337  0.27800945     0.11000
H630        H  0.91482138  0.84356124  0.21400527     0.13000
C631        C  0.67548113  0.91845501  0.11382591     0.19100
C632        C  0.64216514  0.89928121  0.11823528    -0.19000
C633        C  0.62148882  0.89220204  0.08802206    -0.11300
C634        C  0.63365942  0.90474313  0.05266495     0.21300
C635        C  0.66707348  0.92333263  0.04807136    -0.20600
C636        C  0.68780275  0.92984128  0.07818897    -0.11500
C637        C  0.61224463  0.90147559  0.02114263    -0.15600
C638        C  0.58199678  0.87682333  0.01699130    -0.29500
C639        C  0.69603435  0.93053036  0.14750024    -0.03800
C640        C  0.72678184  0.93781915  0.14921878    -0.40300
H641        H  0.63203130  0.89067139  0.14548114     0.12500
H642        H  0.59594646  0.87839071  0.09293910     0.12100
H643        H  0.67713833  0.93356542  0.02127570     0.11500
H644        H  0.71330856  0.94536849  0.07399448     0.11800
H645        H  0.62200194  0.92003111  0.00020495     0.14500
H646        H  0.57264139  0.85684590  0.03593854     0.13300
H647        H  0.68557625  0.93500582  0.17167247     0.11000
H648        H  0.73715522  0.93165880  0.12639845     0.13000
C649        C  0.59084775  0.02722050  0.71275904     0.19100
C650        C  0.56750436  0.99490477  0.70828024    -0.19000
C651        C  0.55871263  0.97329702  0.73785010    -0.11300
C652        C  0.57325693  0.98346496  0.77283344     0.21300
C653        C  0.59657236  0.01574443  0.77727657    -0.20600
C654        C  0.60522404  0.03733541  0.74784540    -0.11500
C655        C  0.56659572  0.96130576  0.80476273    -0.15600
C656        C  0.54078323  0.93163951  0.80815554    -0.29500
C657        C  0.60134655  0.04880800  0.67958393    -0.03800
C658        C  0.61897942  0.08089179  0.68117165    -0.40300
H659        H  0.55631867  0.98618759  0.68152895     0.12500
H660        H  0.54124948  0.94859856  0.73277576     0.12100
H661        H  0.60856220  0.02431087  0.80366618     0.11500
H662        H  0.62395075  0.06162696  0.75260684     0.11800
H663        H  0.58409073  0.97020429  0.82700179     0.14500
H664        H  0.52227406  0.92229992  0.78715378     0.13300
H665        H  0.59513389  0.03758786  0.65247418     0.11000
H666        H  0.62477133  0.09280264  0.70779292     0.13000
C667        C  0.35635719  0.79158016  0.91013618     0.19100
C668        C  0.33607327  0.78356364  0.94124521    -0.19000
C669        C  0.30257460  0.76599040  0.93749427    -0.11300
C670        C  0.28842670  0.75607218  0.90227678     0.21300
C671        C  0.30872445  0.76484691  0.87119241    -0.20600
C672        C  0.34208201  0.78238835  0.87491644    -0.11500
C673        C  0.25306458  0.73549863  0.89607983    -0.15600
C674        C  0.22981202  0.72635236  0.92204002    -0.29500
C675        C  0.39196488  0.80899896  0.91582984    -0.03800
C676        C  0.41361413  0.81276738  0.88960773    -0.40300
H677        H  0.34620447  0.79041480  0.96877533     0.12500
H678        H  0.28810812  0.75980574  0.96230273     0.12100
H679        H  0.29870085  0.75781362  0.84364153     0.11500
H680        H  0.35631320  0.78852407  0.84995091     0.11800
H681        H  0.24576986  0.72678437  0.86799486     0.14500
H682        H  0.23573443  0.73474798  0.95033881     0.13300
H683        H  0.40062614  0.81776366  0.94359673     0.11000
H684        H  0.40580481  0.80329259  0.86199988     0.13000
C685        C  0.12658648  0.82873767  0.32291288     0.19100
C686        C  0.15001568  0.85636509  0.34053387    -0.19000
C687        C  0.17869733  0.85904777  0.35189784    -0.11300
C688        C  0.18425565  0.83390437  0.34592981     0.21300
C689        C  0.16021683  0.80582771  0.32959921    -0.20600
C690        C  0.13166061  0.80322176  0.31813432    -0.11500
C691        C  0.21422756  0.83550406  0.35731142    -0.15600
C692        C  0.24186347  0.86285919  0.36299600    -0.29500
C693        C  0.09697618  0.82690132  0.30980595    -0.03800
C694        C  0.08240516  0.81117192  0.27875586    -0.40300
H695        H  0.14629076  0.87606389  0.34502944     0.12500
H696        H  0.19606575  0.88061406  0.36573941     0.12100
H697        H  0.16364676  0.78590603  0.32541297     0.11500
H698        H  0.11350217  0.78113719  0.30582344     0.11800
H699        H  0.21361444  0.81316600  0.36048285     0.14500
H700        H  0.24349488  0.88554974  0.35907670     0.13300
H701        H  0.08793053  0.83988882  0.32483755     0.11000
H702        H  0.09276023  0.80009690  0.26232175     0.13000
C703        C  0.52592144  0.01916377  0.51012753     0.19100
C704        C  0.50777832  0.99072150  0.52976569    -0.19000
C705        C  0.47588908  0.96971323  0.52030212    -0.11300
C706        C  0.46180518  0.97674430  0.49065682     0.21300
C707        C  0.48003710  0.00501988  0.47083542    -0.20600
C708        C  0.51189375  0.02591285  0.48016890    -0.11500
C709        C  0.42816978  0.95529433  0.47975281    -0.15600
C710        C  0.41333492  0.92372931  0.48398366    -0.29500
C711        C  0.55926696  0.04152143  0.52162726    -0.03800
C712        C  0.57283298  0.07294766  0.51700369    -0.40300
H713        H  0.51810829  0.98508062  0.55294224     0.12500
H714        H  0.46222415  0.94839342  0.53667606     0.12100
H715        H  0.46970739  0.01075423  0.44772985     0.11500
H716        H  0.52549240  0.04712748  0.46361348     0.11800
H717        H  0.41602636  0.96557555  0.46533811     0.14500
H718        H  0.42596317  0.91284833  0.49563583     0.13300
H719        H  0.57216139  0.03218710  0.53630557     0.11000
H720        H  0.55920393  0.08267122  0.50512484     0.13000
C721        C  0.20267806  0.62728923  0.43552769     0.19100
C722        C  0.20652234  0.64804571  0.46457693    -0.19000
C723        C  0.21932057  0.68053421  0.45807493    -0.11300
C724        C  0.22881141  0.69321948  0.42212237     0.21300
C725        C  0.22446433  0.67232925  0.39299466    -0.20600
C726        C  0.21163625  0.63985270  0.39949818    -0.11500
C727        C  0.24593694  0.72806758  0.41401666    -0.15600
C728        C  0.25035058  0.75083042  0.43845465    -0.29500
C729        C  0.19106997  0.59331079  0.44447631    -0.03800
C730        C  0.17941727  0.56961218  0.41931202    -0.40300
H731        H  0.20006450  0.63915819  0.49265527     0.12500
H732        H  0.22257555  0.69549766  0.48161847     0.12100
H733        H  0.23183376  0.68132134  0.36508161     0.11500
H734        H  0.20989399  0.62505834  0.37635420     0.11800
H735        H  0.25719982  0.73547605  0.38692648     0.14500
H736        H  0.23927290  0.74457121  0.46561440     0.13300
H737        H  0.19179966  0.58750593  0.47338022     0.11000
H738        H  0.17689427  0.57430377  0.39055144     0.13000
C739        C  0.23796676  0.93373604  0.61904932     0.19100
C740        C  0.25184951  0.91506910  0.62494161    -0.19000
C741        C  0.26187151  0.90385527  0.59510460    -0.11300
C742        C  0.25833511  0.91111485  0.55824846     0.21300
C743        C  0.24444511  0.92977050  0.55240140    -0.20600
C744        C  0.23443623  0.94096622  0.58219883    -0.11500
C745        C  0.27015465  0.90143476  0.52520268    -0.15600
C746        C  0.28152225  0.88143409  0.52598831    -0.29500
C747        C  0.22926970  0.94649216  0.65201125    -0.03800
C748        C  0.21148936  0.96042591  0.65052084    -0.40300
H749        H  0.25529691  0.90935155  0.65293512     0.12500
H750        H  0.27290682  0.89015221  0.60136667     0.12100
H751        H  0.24168707  0.93616141  0.52446881     0.11500
H752        H  0.22475068  0.95588363  0.57596102     0.11800
H753        H  0.27021579  0.91211591  0.49876334     0.14500
H754        H  0.28171139  0.87010052  0.55168098     0.13300
H755        H  0.23847551  0.94475761  0.67880420     0.11000
H756        H  0.20139132  0.96199272  0.62442320     0.13000
C757        C  0.15954083  0.80496459  0.82932047     0.19100
C758        C  0.18250112  0.83223566  0.84803424    -0.19000
C759        C  0.18360863  0.86101532  0.84332822    -0.11300
C760        C  0.16190253  0.86296713  0.81942342     0.21300
C761        C  0.13910588  0.83576696  0.80054022    -0.20600
C762        C  0.13812676  0.80708951  0.80505037    -0.11500
C763        C  0.16271077  0.89306232  0.81296660    -0.15600
C764        C  0.19016761  0.92117700  0.81273705    -0.29500
C765        C  0.15769862  0.77443178  0.83666073    -0.03800
C766        C  0.12970618  0.74687447  0.83581572    -0.40300
H767        H  0.19911789  0.83108652  0.86696321     0.12500
H768        H  0.20108677  0.88151136  0.85882308     0.12100
H769        H  0.12237628  0.83685950  0.78173417     0.11500
H770        H  0.12072268  0.78673511  0.78931488     0.11800
H771        H  0.14066387  0.89175296  0.80441399     0.14500
H772        H  0.21274231  0.92249913  0.81820377     0.13300
H773        H  0.17902237  0.77487133  0.84643543     0.11000
H774        H  0.10781266  0.74654946  0.82912819     0.13000
C775        C  0.10498280  0.08233897  0.76347730     0.19100
C776        C  0.09327833  0.09197683  0.73380705    -0.19000
C777        C  0.07629286  0.10749389  0.74009808    -0.11300
C778        C  0.07049930  0.11378076  0.77646763     0.21300
C779        C  0.08241224  0.10437603  0.80614455    -0.20600
C780        C  0.09944204  0.08888849  0.79985270    -0.11500
C781        C  0.05020295  0.12775941  0.78477133    -0.15600
C782        C  0.04284780  0.14352338  0.75987817    -0.29500
C783        C  0.12086301  0.06381978  0.75515456    -0.03800
C784        C  0.13820560  0.05815158  0.77973244    -0.40300
H785        H  0.09680000  0.08696586  0.70551407     0.12500
H786        H  0.06689174  0.11342236  0.71634695     0.12100
H787        H  0.07801207  0.10851576  0.83446029     0.11500
H788        H  0.10719284  0.08128619  0.82367538     0.11800
H789        H  0.04054276  0.12453028  0.81267739     0.14500
H790        H  0.05317611  0.14833863  0.73230187     0.13300
H791        H  0.11787265  0.05416730  0.72734643     0.11000
H792        H  0.14255997  0.06824184  0.80732464     0.13000
C793        C  0.49123236  0.97644832  0.97870961     0.19100
C794        C  0.49291026  0.00154729  0.95818370    -0.19000
C795        C  0.48268030  0.02105889  0.97344640    -0.11300
C796        C  0.47067960  0.01602159  0.00994795     0.21300
C797        C  0.46866250  0.99069900  0.03029352    -0.20600
C798        C  0.47891315  0.97124302  0.01507582    -0.11500
C799        C  0.46020967  0.03641120  0.02825312    -0.15600
C800        C  0.46571711  0.06436683  0.01477677    -0.29500
C801        C  0.50355828  0.95715797  0.96155080    -0.03800
C802        C  0.49850834  0.92958881  0.97566846    -0.40300
H803        H  0.50223828  0.00613790  0.93014060     0.12500
H804        H  0.48418534  0.03979989  0.95628506     0.12100
H805        H  0.45957757  0.98622146  0.05844225     0.11500
H806        H  0.47769790  0.95276613  0.03249215     0.11800
H807        H  0.44847784  0.02856048  0.05506823     0.14500
H808        H  0.47832641  0.07368116  0.98881431     0.13300
H809        H  0.51722615  0.96597068  0.93598405     0.11000
H810        H  0.48397678  0.91941905  0.00028918     0.13000
C811        C  0.34622548  0.10025164  0.95099082     0.19100
C812        C  0.31491031  0.07406075  0.95210954    -0.19000
C813        C  0.29482704  0.06579468  0.92143778    -0.11300
C814        C  0.30541712  0.08363573  0.88849057     0.21300
C815        C  0.33665020  0.11024208  0.88737602    -0.20600
C816        C  0.35687989  0.11864522  0.91839608    -0.11500
C817        C  0.28542175  0.07279126  0.85423167    -0.15600
C818        C  0.25329020  0.05403162  0.85548289    -0.29500
C819        C  0.36739339  0.10478006  0.98303092    -0.03800
C820        C  0.39581036  0.13106365  0.99062519    -0.40300
H821        H  0.30617973  0.05915763  0.97657482     0.12500
H822        H  0.27156983  0.04440289  0.92328476     0.12100
H823        H  0.34564498  0.12410480  0.86218746     0.11500
H824        H  0.38109226  0.13859296  0.91615986     0.11800
H825        H  0.29757338  0.07867396  0.82757433     0.14500
H826        H  0.24094231  0.04917938  0.88188853     0.13300
H827        H  0.35898809  0.08448046  0.00144774     0.11000
H828        H  0.40456442  0.15244620  0.97415725     0.13000
C829        C  0.41232187  0.98192999  0.29502744     0.19100
C830        C  0.43244795  0.01404647  0.30468789    -0.19000
C831        C  0.44579474  0.03785747  0.27749642    -0.11300
C832        C  0.43919232  0.03034205  0.23978685     0.21300
C833        C  0.42034726  0.99806739  0.22984728    -0.20600
C834        C  0.40703199  0.97421158  0.25703401    -0.11500
C835        C  0.45105998  0.05667565  0.21186488    -0.15600
C836        C  0.43507967  0.05374012  0.18025571    -0.29500
C837        C  0.39649051  0.95796892  0.32557545    -0.03800
C838        C  0.37547936  0.92659178  0.32071967    -0.40300
H839        H  0.43730030  0.02090847  0.33356396     0.12500
H840        H  0.46043620  0.06238894  0.28609219     0.12100
H841        H  0.41561201  0.99107297  0.20105012     0.11500
H842        H  0.39227742  0.94996441  0.24783288     0.11800
H843        H  0.47112458  0.07986338  0.21929435     0.14500
H844        H  0.41336652  0.03135774  0.17439423     0.13300
H845        H  0.40128174  0.96706672  0.35376516     0.11000
H846        H  0.36974884  0.91646132  0.29316125     0.13000
C847        C  0.68980814  0.24830033  0.10120645     0.19100
C848        C  0.66885469  0.24025926  0.07110602    -0.19000
C849        C  0.63565360  0.22259248  0.07650242    -0.11300
C850        C  0.62260252  0.21288259  0.11233458     0.21300
C851        C  0.64353768  0.22166249  0.14254467    -0.20600
C852        C  0.67675238  0.23894911  0.13709260    -0.11500
C853        C  0.58736322  0.19548036  0.11898076    -0.15600
C854        C  0.56640205  0.17519591  0.09395502    -0.29500
C855        C  0.72499898  0.26840120  0.09483261    -0.03800
C856        C  0.74651748  0.26716327  0.11699106    -0.40300
H857        H  0.67821202  0.24777082  0.04333918     0.12500
H858        H  0.62028171  0.21737727  0.05265715     0.12100
H859        H  0.63415636  0.21515739  0.17044703     0.11500
H860        H  0.69209528  0.24577156  0.16118305     0.11800
H861        H  0.57856199  0.20012257  0.14447399     0.14500
H862        H  0.57538951  0.16997156  0.06902800     0.13300
H863        H  0.73332406  0.28507189  0.07185263     0.11000
H864        H  0.73819306  0.24964816  0.13906175     0.13000
C865        C  0.30810711  0.18739239  0.16565696     0.19100
C866        C  0.32278006  0.17872833  0.19286879    -0.19000
C867        C  0.34016256  0.16434388  0.18306070    -0.11300
C868        C  0.34366033  0.15876881  0.14556922     0.21300
C869        C  0.32925845  0.16781878  0.11835550    -0.20600
C870        C  0.31173101  0.18204757  0.12820318    -0.11500
C871        C  0.36199812  0.14374499  0.13327868    -0.15600
C872        C  0.38242345  0.13993726  0.15475080    -0.29500
C873        C  0.28932599  0.20188498  0.17769004    -0.03800
C874        C  0.26491813  0.20020369  0.15818674    -0.40300
H875        H  0.32031420  0.18260787  0.22193244     0.12500
H876        H  0.35031848  0.15736303  0.20506272     0.12100
H877        H  0.33173625  0.16403780  0.08926843     0.11500
H878        H  0.30144496  0.18913678  0.10640416     0.11800
H879        H  0.35995383  0.13716317  0.10420454     0.14500
H880        H  0.38652722  0.14767178  0.18337605     0.13300
H881        H  0.29411608  0.21206473  0.20535782     0.11000
H882        H  0.25811023  0.18824597  0.13159521     0.13000
C883        C  0.16734159  0.35693851  0.37583128     0.19100
C884        C  0.19547933  0.36470360  0.35654724    -0.19000
C885        C  0.19964765  0.34099274  0.34116660    -0.11300
C886        C  0.17574393  0.30885062  0.34492989     0.21300
C887        C  0.14828905  0.30088742  0.36580869    -0.20600
C888        C  0.14397627  0.32468901  0.38101758    -0.11500
C889        C  0.17914375  0.28343063  0.32731144    -0.15600
C890        C  0.19384010  0.28788801  0.29440112    -0.29500
C891        C  0.16364725  0.38329108  0.39000260    -0.03800
C892        C  0.13526468  0.38046060  0.39786366    -0.40300
H893        H  0.21412462  0.38929476  0.35277828     0.12500
H894        H  0.22166568  0.34788914  0.32642857     0.12100
H895        H  0.12985324  0.27623732  0.36967509     0.11500
H896        H  0.12248036  0.31767148  0.39687341     0.11800
H897        H  0.16810532  0.26032192  0.34066275     0.14500
H898        H  0.20270030  0.31021282  0.27975498     0.13300
H899        H  0.18523871  0.40655550  0.39206683     0.11000
H900        H  0.11317705  0.35782373  0.39487747     0.13000
C901        C  0.08223738  0.97856205  0.21895239     0.19100
C902        C  0.09226672  0.00215068  0.19165844    -0.19000
C903        C  0.10905230  0.03443133  0.20130238    -0.11300
C904        C  0.11571062  0.04401479  0.23870623     0.21300
C905        C  0.10479883  0.02037401  0.26611693    -0.20600
C906        C  0.08860001  0.98806199  0.25639668    -0.11500
C907        C  0.13202072  0.07838147  0.24942947    -0.15600
C908        C  0.15480737  0.10133516  0.22790436    -0.29500
C909        C  0.06341494  0.94425939  0.20816436    -0.03800
C910        C  0.06649307  0.92196395  0.22619760    -0.40300
H911        H  0.08713457  0.99557478  0.16272969     0.12500
H912        H  0.11597019  0.05184790  0.17942976     0.12100
H913        H  0.10889155  0.02692951  0.29513388     0.11500
H914        H  0.08027790  0.97050252  0.27829341     0.11800
H915        H  0.12411538  0.08485253  0.27434478     0.14500
H916        H  0.16281138  0.09426673  0.20355738     0.13300
H917        H  0.04628110  0.93726210  0.18567114     0.11000
H918        H  0.08443097  0.92955927  0.24787305     0.13000
C919        C  0.02781767  0.12699268  0.22934191     0.19100
C920        C  0.00492828  0.11482769  0.20096213    -0.19000
C921        C  0.97217036  0.09790511  0.20931268    -0.11300
C922        C  0.96152597  0.09250813  0.24643458     0.21300
C923        C  0.98439618  0.10436520  0.27478861    -0.20600
C924        C  0.01712404  0.12149658  0.26645158    -0.11500
C925        C  0.92698681  0.07248402  0.25632811    -0.15600
C926        C  0.90351183  0.06961279  0.23413670    -0.29500
C927        C  0.06249076  0.14306762  0.21956055    -0.03800
C928        C  0.08568504  0.16381329  0.24232267    -0.40300
H929        H  0.01243420  0.11810927  0.17219316     0.12500
H930        H  0.95535684  0.08814284  0.18661591     0.12100
H931        H  0.97690452  0.10001112  0.30355662     0.11500
H932        H  0.03387030  0.12931770  0.28923093     0.11800
H933        H  0.92077123  0.05917070  0.28213352     0.14500
H934        H  0.90962792  0.08370688  0.20896934     0.13300
H935        H  0.06907175  0.13701668  0.19333589     0.11000
H936        H  0.07925427  0.17084068  0.26791717     0.13000
C937        C  0.31520366  0.13450242  0.67666062     0.19100
C938        C  0.34755460  0.14415040  0.68140510    -0.19000
C939        C  0.37167006  0.17424614  0.66998685    -0.11300
C940        C  0.36393558  0.19540827  0.65381823     0.21300
C941        C  0.33156242  0.18554207  0.64826312    -0.20600
C942        C  0.30747278  0.15546264  0.65955076    -0.11500
C943        C  0.39018607  0.22688973  0.64143193    -0.15600
C944        C  0.38638134  0.25181303  0.63569812    -0.29500
C945        C  0.29055541  0.10229484  0.68933960    -0.03800
C946        C  0.25914219  0.09203836  0.69185536    -0.40300
H947        H  0.35422780  0.12837216  0.69409807     0.12500
H948        H  0.39644176  0.18108723  0.67398697     0.12100
H949        H  0.32456808  0.20053338  0.63432471     0.11500
H950        H  0.28305259  0.14883854  0.65397369     0.11800
H951        H  0.41353600  0.22959125  0.63681905     0.14500
H952        H  0.36365607  0.25011838  0.64123612     0.13300
H953        H  0.29886268  0.08652564  0.69796997     0.11000
H954        H  0.24988123  0.10723197  0.68477357     0.13000
C955        C  0.30635278  0.22949333  0.36516109     0.19100
C956        C  0.30290476  0.21907649  0.40199588    -0.19000
C957        C  0.32902454  0.23267942  0.42637655    -0.11300
C958        C  0.35943154  0.25730108  0.41449439     0.21300
C959        C  0.36323109  0.26632547  0.37704109    -0.20600
C960        C  0.33717757  0.25258774  0.35265458    -0.11500
C961        C  0.38736164  0.27489513  0.44017912    -0.15600
C962        C  0.38434909  0.27435554  0.47734719    -0.29500
C963        C  0.27738331  0.21683763  0.34087290    -0.03800
C964        C  0.27568855  0.23472173  0.31380088    -0.40300
H965        H  0.27968620  0.20093470  0.41227645     0.12500
H966        H  0.32494935  0.22379712  0.45444502     0.12100
H967        H  0.38635110  0.28466748  0.36671913     0.11500
H968        H  0.34132444  0.26034792  0.32406635     0.11800
H969        H  0.41069732  0.29089834  0.42803433     0.14500
H970        H  0.36101939  0.25987888  0.48998062     0.13300
H971        H  0.25639377  0.19398199  0.34735856     0.11000
H972        H  0.29592982  0.25854761  0.30958455     0.13000
C973        C  0.62229093  0.43846571  0.54925256     0.19100
C974        C  0.64096582  0.44274783  0.51769814    -0.19000
C975        C  0.67417006  0.46278791  0.51851957    -0.11300
C976        C  0.68973013  0.47890813  0.55130627     0.21300
C977        C  0.67086202  0.47633856  0.58212224    -0.20600
C978        C  0.63752752  0.45642871  0.58120094    -0.11500
C979        C  0.72531417  0.49700338  0.55524351    -0.15600
C980        C  0.74492525  0.49359675  0.53182469    -0.29500
C981        C  0.58747098  0.41426220  0.54753230    -0.03800
C982        C  0.56782359  0.40341187  0.57712036    -0.40300
H983        H  0.62989560  0.42985092  0.49240192     0.12500
H984        H  0.68726495  0.46503854  0.49341336     0.12100
H985        H  0.68203562  0.48896888  0.60750781     0.11500
H986        H  0.62417350  0.45494477  0.60581473     0.11800
H987        H  0.73542676  0.51117971  0.58011653     0.14500
H988        H  0.73538206  0.47846122  0.50771143     0.13300
H989        H  0.57785373  0.40360207  0.52065279     0.11000
H990        H  0.57626427  0.41326388  0.60447582     0.13000
C991        C  0.53570642  0.24522105  0.57639382     0.19100
C992        C  0.54480764  0.23589427  0.60865940    -0.19000
C993        C  0.56363832  0.22197391  0.60663957    -0.11300
C994        C  0.57388405  0.21710012  0.57207875     0.21300
C995        C  0.56452956  0.22619739  0.53979360    -0.20600
C996        C  0.54565723  0.24006271  0.54182199    -0.11500
C997        C  0.59567064  0.20435421  0.56821959    -0.15600
C998        C  0.60258502  0.19001876  0.59548778    -0.29500
C999        C  0.51881355  0.26311336  0.58033309    -0.03800
C1000       C  0.50306659  0.26784251  0.55276094    -0.40300
H1001       H  0.53788457  0.24003629  0.63567603     0.12500
H1002       H  0.57078793  0.21608128  0.63230874     0.12100
H1003       H  0.57235188  0.22308551  0.51281473     0.11500
H1004       H  0.54005229  0.24774077  0.51632653     0.11800
H1005       H  0.60660468  0.20692134  0.54115026     0.14500
H1006       H  0.59146985  0.18602127  0.62255394     0.13300
H1007       H  0.52036477  0.27382764  0.60721017     0.11000
H1008       H  0.49962108  0.25625050  0.52614489     0.13000
C1009       C  0.42148548  0.41470013  0.69362770     0.19100
C1010       C  0.39537818  0.41911296  0.68910329    -0.19000
C1011       C  0.38365672  0.42849298  0.71892092    -0.11300
C1012       C  0.39810120  0.43410750  0.75408487     0.21300
C1013       C  0.42485579  0.43070369  0.75829413    -0.20600
C1014       C  0.43660032  0.42135175  0.72845126    -0.11500
C1015       C  0.38487511  0.44154056  0.78740626    -0.15600
C1016       C  0.36558381  0.45367983  0.78576264    -0.29500
C1017       C  0.43118654  0.40198127  0.66180417    -0.03800
C1018       C  0.44727299  0.38651177  0.66561970    -0.40300
H1019       H  0.38325614  0.41422393  0.66263606     0.12500
H1020       H  0.36260057  0.43012164  0.71447540     0.12100
H1021       H  0.43657787  0.43501586  0.78495850     0.11500
H1022       H  0.45736483  0.41924095  0.73297874     0.11800
H1023       H  0.39144963  0.43691628  0.81444610     0.14500
H1024       H  0.36004250  0.46006447  0.75921234     0.13300
H1025       H  0.42202387  0.40267846  0.63458834     0.11000
H1026       H  0.45509094  0.38382444  0.69276771     0.13000
C1027       C  0.22759997  0.32435794  0.09253894     0.19100
C1028       C  0.25295934  0.35586933  0.09603346    -0.19000
C1029       C  0.26273216  0.37694351  0.06612419    -0.11300
C1030       C  0.24727651  0.36710743  0.03156132     0.21300
C1031       C  0.22102193  0.33589672  0.02845848    -0.20600
C1032       C  0.21119217  0.31472220  0.05856692    -0.11500
C1033       C  0.25979807  0.38742700  0.99751470    -0.15600
C1034       C  0.28153787  0.41885544  0.99810344    -0.29500
C1035       C  0.22213951  0.30198706  0.12353989    -0.03800
C1036       C  0.19663004  0.27232668  0.12787333    -0.40300
H1037       H  0.26622850  0.36396067  0.12175039     0.12500
H1038       H  0.28344872  0.40032101  0.07004882     0.12100
H1039       H  0.20872924  0.32750028  0.00221212     0.11500
H1040       H  0.19184872  0.29055953  0.05449583     0.11800
H1041       H  0.25194111  0.37566188  0.97083226     0.14500
H1042       H  0.28899706  0.43143181  0.02425188     0.13300
H1043       H  0.24131148  0.31041514  0.14380261     0.11000
H1044       H  0.17607059  0.26331859  0.10967734     0.13000
C1045       C  0.11821849  0.31398246  0.83969149     0.19100
C1046       C  0.13196019  0.34229805  0.81922569    -0.19000
C1047       C  0.16479595  0.36421186  0.82128376    -0.11300
C1048       C  0.18445751  0.35827558  0.84428024     0.21300
C1049       C  0.17064542  0.33013973  0.86501377    -0.20600
C1050       C  0.13786148  0.30835139  0.86310803    -0.11500
C1051       C  0.21938024  0.38061021  0.84758660    -0.15600
C1052       C  0.23352456  0.41194181  0.84119263    -0.29500
C1053       C  0.08362363  0.29056058  0.83505642    -0.03800
C1054       C  0.07101061  0.25934211  0.84101151    -0.40300
H1055       H  0.11735721  0.34714792  0.80093195     0.12500
H1056       H  0.17466303  0.38532428  0.80427186     0.12100
H1057       H  0.18524654  0.32515816  0.88314808     0.11500
H1058       H  0.12812087  0.28734847  0.88028173     0.11800
H1059       H  0.23364938  0.37123156  0.85859158     0.14500
H1060       H  0.21952079  0.42229779  0.83257850     0.13300
H1061       H  0.06870334  0.29882051  0.82310937     0.11000
H1062       H  0.08596069  0.25028021  0.85038761     0.13000
C1063       C  0.44359062  0.63975915  0.88927840     0.19100
C1064       C  0.45991216  0.65807610  0.92043981    -0.19000
C1065       C  0.47705145  0.69121427  0.91866530    -0.11300
C1066       C  0.47805956  0.70687195  0.88562390     0.21300
C1067       C  0.46361614  0.68865578  0.85376429    -0.20600
C1068       C  0.44631159  0.65541086  0.85555004    -0.11500
C1069       C  0.49203158  0.74186723  0.88420362    -0.15600
C1070       C  0.49026090  0.75814037  0.91329207    -0.29500
C1071       C  0.42128913  0.60506621  0.89461327    -0.03800
C1072       C  0.40720451  0.58363461  0.86716233    -0.40300
H1073       H  0.45848050  0.64671112  0.94669087     0.12500
H1074       H  0.48883791  0.70450730  0.94345934     0.12100
H1075       H  0.46424793  0.70016328  0.82792029     0.11500
H1076       H  0.43388161  0.64233731  0.83094588     0.11800
H1077       H  0.50042122  0.75374721  0.85764039     0.14500
H1078       H  0.47946865  0.74579913  0.93903785     0.13300
H1079       H  0.41494674  0.59698174  0.92311030     0.11000
H1080       H  0.41390482  0.59026236  0.83843166     0.13000
C1081       C  0.24251615  0.55330519  0.89256526     0.19100
C1082       C  0.22993445  0.55879236  0.86027471    -0.19000
C1083       C  0.20916515  0.57056088  0.86227847    -0.11300
C1084       C  0.20058208  0.57730045  0.89686921     0.21300
C1085       C  0.21281838  0.57135077  0.92913822    -0.20600
C1086       C  0.23357539  0.55962093  0.92712333    -0.11500
C1087       C  0.18112122  0.59267635  0.90110661    -0.15600
C1088       C  0.16834850  0.60091278  0.87318630    -0.29500
C1089       C  0.26571702  0.54223214  0.88861566    -0.03800
C1090       C  0.27484807  0.53003281  0.91626163    -0.40300
H1091       H  0.23647885  0.55425274  0.83323367     0.12500
H1092       H  0.20063449  0.57486502  0.83663020     0.12100
H1093       H  0.20690449  0.57653993  0.95618134     0.11500
H1094       H  0.24309701  0.55643791  0.95269719     0.11800
H1095       H  0.17873916  0.59926568  0.92917327     0.14500
H1096       H  0.16950535  0.59449012  0.84475651     0.13300
H1097       H  0.27527030  0.54358271  0.86096766     0.11000
H1098       H  0.26495073  0.52704888  0.94391216     0.13000
C1099       C  0.68366749  0.82685115  0.83444961     0.19100
C1100       C  0.69192788  0.85855327  0.83880376    -0.19000
C1101       C  0.66824040  0.86654088  0.83996092    -0.11300
C1102       C  0.63574842  0.84280242  0.83716630     0.21300
C1103       C  0.62748276  0.81115854  0.83250272    -0.20600
C1104       C  0.65112809  0.80314029  0.83158236    -0.11500
C1105       C  0.60985808  0.85001840  0.84073295    -0.15600
C1106       C  0.61248287  0.87281662  0.86354810    -0.29500
C1107       C  0.70957626  0.81949723  0.83213797    -0.03800
C1108       C  0.70615798  0.79440248  0.81324790    -0.40300
H1109       H  0.71681676  0.87724553  0.84082708     0.12500
H1110       H  0.67541311  0.89127102  0.84281838     0.12100
H1111       H  0.60258608  0.79247616  0.83062856     0.11500
H1112       H  0.64371314  0.77832850  0.82924198     0.11800
H1113       H  0.58687959  0.83382427  0.82804323     0.14500
H1114       H  0.63443259  0.88722300  0.87899866     0.13300
H1115       H  0.73299412  0.83682269  0.84299914     0.11000
H1116       H  0.68375862  0.77836653  0.79944700     0.13000
C1117       C  0.83276207  0.64760430  0.64007859     0.19100
C1118       C  0.81010734  0.64139204  0.66782692    -0.19000
C1119       C  0.80636568  0.66567861  0.68195566    -0.11300
C1120       C  0.82554401  0.69694024  0.66885337     0.21300
C1121       C  0.84782194  0.70319367  0.64063968    -0.20600
C1122       C  0.85166964  0.67885655  0.62651884    -0.11500
C1123       C  0.82171259  0.72304031  0.68308920    -0.15600
C1124       C  0.81103546  0.72263889  0.71750952    -0.29500
C1125       C  0.83627147  0.62086713  0.62727201    -0.03800
C1126       C  0.85322777  0.62201050  0.59734520    -0.40300
H1127       H  0.79510270  0.61756666  0.67858370     0.12500
H1128       H  0.78799422  0.65967101  0.70263674     0.12100
H1129       H  0.86261180  0.72705880  0.62991147     0.11500
H1130       H  0.86983260  0.68500198  0.60560027     0.11800
H1131       H  0.82742594  0.74278708  0.66467274     0.14500
H1132       H  0.80672170  0.70380386  0.73668977     0.13300
H1133       H  0.82413551  0.59903873  0.64334093     0.11000
H1134       H  0.86485937  0.64288497  0.57982625     0.13000
C1135       C  0.87656104  0.02442688  0.77564864     0.19100
C1136       C  0.86748471  0.00697087  0.74246499    -0.19000
C1137       C  0.84997961  0.97378375  0.74281391    -0.11300
C1138       C  0.84123967  0.95705530  0.77656807     0.21300
C1139       C  0.84870652  0.97446808  0.80976539    -0.20600
C1140       C  0.86626784  0.00776040  0.80942786    -0.11500
C1141       C  0.82567749  0.92177034  0.77852658    -0.15600
C1142       C  0.82669541  0.90374309  0.75084247    -0.29500
C1143       C  0.89876775  0.05948301  0.77317799    -0.03800
C1144       C  0.90890440  0.08001294  0.80191794    -0.40300
H1145       H  0.87468755  0.01907287  0.71598542     0.12500
H1146       H  0.84376775  0.96151915  0.71651429     0.12100
H1147       H  0.84198771  0.96226139  0.83619898     0.11500
H1148       H  0.87257160  0.02003237  0.83571440     0.11800
H1149       H  0.81563668  0.91059458  0.80508122     0.14500
H1150       H  0.83817682  0.91446715  0.72472987     0.13300
H1151       H  0.90844909  0.06878529  0.74583450     0.11000
H1152       H  0.89928295  0.07223812  0.82954039     0.13000
C1153       C  0.95705866  0.86597729  0.75712278     0.19100
C1154       C  0.97527943  0.87213369  0.72459906    -0.19000
C1155       C  0.00877199  0.88867045  0.72592639    -0.11300
C1156       C  0.02477176  0.89919976  0.76007363     0.21300
C1157       C  0.00643698  0.89189592  0.79265226    -0.20600
C1158       C  0.97305262  0.87544777  0.79130722    -0.11500
C1159       C  0.06016723  0.91959136  0.76348114    -0.15600
C1160       C  0.08137084  0.92946040  0.73523069    -0.29500
C1161       C  0.92159804  0.84976867  0.75412255    -0.03800
C1162       C  0.90254582  0.85102225  0.78046244    -0.40300
H1163       H  0.96356554  0.86479214  0.69791078     0.12500
H1164       H  0.02172669  0.89362185  0.70007675     0.12100
H1165       H  0.01802017  0.89944202  0.81939651     0.11500
H1166       H  0.96005125  0.87025501  0.81717310     0.11800
H1167       H  0.06917919  0.92848352  0.79111663     0.14500
H1168       H  0.07388839  0.92089279  0.70723790     0.13300
H1169       H  0.91093133  0.83775628  0.72818217     0.11000
H1170       H  0.91262601  0.86418539  0.80586204     0.13000
C1171       C  0.85305250  0.69365883  0.18330992     0.19100
C1172       C  0.83629687  0.66597436  0.20479276    -0.19000
C1173       C  0.80413973  0.64388470  0.19769311    -0.11300
C1174       C  0.78798527  0.64916206  0.16890729     0.21300
C1175       C  0.80444869  0.67734624  0.14824895    -0.20600
C1176       C  0.83664377  0.69939638  0.15527584    -0.11500
C1177       C  0.75409084  0.62612693  0.15946854    -0.15600
C1178       C  0.73903405  0.59498126  0.16774559    -0.29500
C1179       C  0.88721417  0.71612718  0.19199314    -0.03800
C1180       C  0.90832732  0.73910973  0.16902930    -0.40300
H1181       H  0.84821797  0.66128228  0.22706088     0.12500
H1182       H  0.79208575  0.62301389  0.21507072     0.12100
H1183       H  0.79241966  0.68219563  0.12626986     0.11500
H1184       H  0.84830208  0.72090757  0.13894608     0.11800
H1185       H  0.74179591  0.63475622  0.14232979     0.14500
H1186       H  0.75137695  0.58516425  0.18253113     0.13300
H1187       H  0.89552906  0.71308773  0.21876736     0.11000
H1188       H  0.90119604  0.74274406  0.14191367     0.13000
C1189       C  0.74489547  0.64754269  0.97073561     0.19100
C1190       C  0.76270532  0.68058399  0.97643700    -0.19000
C1191       C  0.77076227  0.70177793  0.94664722    -0.11300
C1192       C  0.76104052  0.69025633  0.91042645     0.21300
C1193       C  0.74457265  0.65737945  0.90452295    -0.20600
C1194       C  0.73666873  0.63627795  0.93408735    -0.11500
C1195       C  0.76428872  0.71102136  0.87865149    -0.15600
C1196       C  0.78578709  0.74236782  0.87619725    -0.29500
C1197       C  0.73204872  0.62600274  0.00368638    -0.03800
C1198       C  0.71581292  0.59405410  0.00142093    -0.40300
H1199       H  0.76924279  0.69005071  0.00424503     0.12500
H1200       H  0.78305634  0.72696648  0.95239185     0.12100
H1201       H  0.73672168  0.64785747  0.87692765     0.11500
H1202       H  0.72267436  0.61128519  0.92776461     0.11800
H1203       H  0.74787781  0.69957640  0.85569825     0.14500
H1204       H  0.80387829  0.75429507  0.89738285     0.13300
H1205       H  0.73340380  0.63686274  0.03039967     0.11000
H1206       H  0.71434362  0.58235998  0.97544516     0.13000
C1207       C  0.46770357  0.50081055  0.97302708     0.19100
C1208       C  0.49732124  0.52932477  0.97193398    -0.19000
C1209       C  0.52511393  0.53067430  0.98461509    -0.11300
C1210       C  0.52386378  0.50349185  0.99939796     0.21300
C1211       C  0.49427478  0.47488725  0.00021185    -0.20600
C1212       C  0.46646439  0.47351921  0.98742506    -0.11500
C1213       C  0.55267086  0.50395810  0.01426620    -0.15600
C1214       C  0.57927586  0.53068295  0.02522685    -0.29500
C1215       C  0.43876811  0.50086913  0.95974763    -0.03800
C1216       C  0.41156302  0.47453362  0.94931405    -0.40300
H1217       H  0.49903175  0.55066865  0.96090797     0.12500
H1218       H  0.54744019  0.55302321  0.98228382     0.12100
H1219       H  0.49254937  0.45358983  0.01142407     0.11500
H1220       H  0.44408694  0.45120024  0.98971520     0.11800
H1221       H  0.55128345  0.48132750  0.01813581     0.14500
H1222       H  0.58058702  0.55336284  0.02351732     0.13300
H1223       H  0.44030821  0.52368773  0.95741192     0.11000
H1224       H  0.40989737  0.45164923  0.94974588     0.13000
C1225       C  0.78440503  0.42825480  0.11255228     0.19100
C1226       C  0.78659452  0.44941137  0.08481105    -0.19000
C1227       C  0.76690407  0.46255680  0.08548473    -0.11300
C1228       C  0.74414071  0.45462161  0.11394261     0.21300
C1229       C  0.74247741  0.43405086  0.14212364    -0.20600
C1230       C  0.76211896  0.42090719  0.14144240    -0.11500
C1231       C  0.72158668  0.46686779  0.11560735    -0.15600
C1232       C  0.71594570  0.48150417  0.08744589    -0.29500
C1233       C  0.80395829  0.41272848  0.10870451    -0.03800
C1234       C  0.80770340  0.39588032  0.13573718    -0.40300
H1235       H  0.80345304  0.45558243  0.06218168     0.12500
H1236       H  0.76973529  0.47881920  0.06360531     0.12100
H1237       H  0.72531723  0.42749560  0.16448990     0.11500
H1238       H  0.75885439  0.40429948  0.16308289     0.11800
H1239       H  0.70807705  0.46260319  0.14113305     0.14500
H1240       H  0.72838877  0.48558596  0.06125859     0.13300
H1241       H  0.81465748  0.41416682  0.08176142     0.11000
H1242       H  0.79777713  0.39439794  0.16308308     0.13000
C1243       C  0.53447135  0.29795468  0.09485273     0.19100
C1244       C  0.53967270  0.32038670  0.06744697    -0.19000
C1245       C  0.55386562  0.35264965  0.07639378    -0.11300
C1246       C  0.56364553  0.36325963  0.11300612     0.21300
C1247       C  0.55912213  0.34088372  0.14016763    -0.20600
C1248       C  0.54453244  0.30861189  0.13133854    -0.11500
C1249       C  0.58174912  0.39767367  0.12271761    -0.15600
C1250       C  0.57874654  0.41970237  0.10407569    -0.29500
C1251       C  0.52000646  0.26385437  0.08460806    -0.03800
C1252       C  0.50148966  0.24034039  0.10837862    -0.40300
H1253       H  0.53277022  0.31292149  0.03901470     0.12500
H1254       H  0.55816389  0.36927900  0.05429511     0.12100
H1255       H  0.56720478  0.34845830  0.16829490     0.11500
H1256       H  0.54201698  0.29218408  0.15293322     0.11800
H1257       H  0.59989757  0.40540292  0.14418277     0.14500
H1258       H  0.56112229  0.41245335  0.08214673     0.13300
H1259       H  0.52457109  0.25806188  0.05705974     0.11000
H1260       H  0.49570477  0.24631509  0.13514273     0.13000
C1261       C  0.58738742  0.56061626  0.25269602     0.19100
C1262       C  0.59969701  0.56736575  0.28885285    -0.19000
C1263       C  0.58969698  0.58192836  0.31449066    -0.11300
C1264       C  0.56663084  0.58982790  0.30514386     0.21300
C1265       C  0.55304706  0.58188191  0.26947623    -0.20600
C1266       C  0.56331408  0.56744343  0.24351605    -0.11500
C1267       C  0.56015974  0.60884325  0.33246751    -0.15600
C1268       C  0.53439675  0.61245519  0.33321268    -0.29500
C1269       C  0.60139925  0.54768281  0.22562794    -0.03800
C1270       C  0.59997690  0.54975866  0.18846911    -0.40300
H1271       H  0.61802752  0.56231208  0.29703123     0.12500
H1272       H  0.60063589  0.58768639  0.34168766     0.12100
H1273       H  0.53538831  0.58777152  0.26109051     0.11500
H1274       H  0.55251729  0.56200597  0.21632228     0.11800
H1275       H  0.57817659  0.62069026  0.35386079     0.14500
H1276       H  0.51484036  0.59963282  0.31386037     0.13300
H1277       H  0.61613168  0.53889329  0.23677519     0.11000
H1278       H  0.58693128  0.56014904  0.17675536     0.13000
C1279       C  0.69576782  0.77073172  0.61454351     0.19100
C1280       C  0.67237502  0.77931769  0.61166292    -0.19000
C1281       C  0.64831455  0.76555589  0.58446323    -0.11300
C1282       C  0.64763512  0.74330386  0.55923692     0.21300
C1283       C  0.67189711  0.73589384  0.56134441    -0.20600
C1284       C  0.69553213  0.74928112  0.58856776    -0.11500
C1285       C  0.62260366  0.72683674  0.53018668    -0.15600
C1286       C  0.59402272  0.72518599  0.52812585    -0.29500
C1287       C  0.71989148  0.78366148  0.64503890    -0.03800
C1288       C  0.72941954  0.76539556  0.66179169    -0.40300
H1289       H  0.67223977  0.79607197  0.63109157     0.12500
H1290       H  0.63046997  0.77239059  0.58335453     0.12100
H1291       H  0.67235124  0.71918500  0.54207613     0.11500
H1292       H  0.71369355  0.74280660  0.58920068     0.11800
H1293       H  0.62761061  0.71356499  0.50988887     0.14500
H1294       H  0.58764640  0.73779541  0.54773835     0.13300
H1295       H  0.72800652  0.80733139  0.65559297     0.11000
H1296       H  0.71858566  0.74070518  0.65348396     0.13000
C1297       C  0.64244405  0.80584774  0.36075568     0.19100
C1298       C  0.66167844  0.83239989  0.38296733    -0.19000
C1299       C  0.68042529  0.86242957  0.36700812    -0.11300
C1300       C  0.68051652  0.86628265  0.32833877     0.21300
C1301       C  0.66151154  0.83965408  0.30618185    -0.20600
C1302       C  0.64290347  0.80970948  0.32208280    -0.11500
C1303       C  0.69981017  0.89743355  0.30975185    -0.15600
C1304       C  0.72611300  0.92219448  0.32454305    -0.29500
C1305       C  0.62216060  0.77454849  0.37870007    -0.03800
C1306       C  0.59502353  0.75151265  0.36324901    -0.40300
H1307       H  0.66173745  0.82998897  0.41281142     0.12500
H1308       H  0.69423312  0.88247012  0.38511877     0.12100
H1309       H  0.66135266  0.84195838  0.27632755     0.11500
H1310       H  0.62930096  0.78968954  0.30386116     0.11800
H1311       H  0.69320667  0.89932190  0.28150157     0.14500
H1312       H  0.73437683  0.92053974  0.35188424     0.13300
H1313       H  0.62876216  0.77103023  0.40629521     0.11000
H1314       H  0.58695648  0.75538302  0.33681868     0.13000
C1315       C  0.47021943  0.46320456  0.49705752     0.19100
C1316       C  0.47153864  0.48435400  0.52401756    -0.19000
C1317       C  0.48560067  0.51661594  0.51597556    -0.11300
C1318       C  0.49823065  0.52823650  0.48041075     0.21300
C1319       C  0.49618139  0.50676529  0.45325130    -0.20600
C1320       C  0.48235076  0.47457164  0.46143505    -0.11500
C1321       C  0.51292048  0.56211289  0.46973789    -0.15600
C1322       C  0.51535806  0.58515517  0.49214862    -0.29500
C1323       C  0.45741414  0.42973249  0.50746545    -0.03800
C1324       C  0.47101118  0.41364400  0.49514990    -0.40300
H1325       H  0.46237464  0.47599946  0.55166943     0.12500
H1326       H  0.48640725  0.53197186  0.53789842     0.12100
H1327       H  0.50534719  0.51492270  0.42554563     0.11500
H1328       H  0.48108796  0.45860588  0.43987379     0.11800
H1329       H  0.52086364  0.56813481  0.44113023     0.14500
H1330       H  0.50705720  0.58039395  0.52058055     0.13300
H1331       H  0.43963520  0.41967968  0.52945279     0.11000
H1332       H  0.49111396  0.42482868  0.47605628     0.13000
C1333       C  0.41045499  0.78492354  0.41785608     0.19100
C1334       C  0.42354300  0.78014465  0.45005997    -0.19000
C1335       C  0.44340634  0.76740223  0.44826030    -0.11300
C1336       C  0.45023434  0.75832164  0.41402316     0.21300
C1337       C  0.43783134  0.76391107  0.38159371    -0.20600
C1338       C  0.41811040  0.77700763  0.38339485    -0.11500
C1339       C  0.46915425  0.74211457  0.41111004    -0.15600
C1340       C  0.47457606  0.72809664  0.44008389    -0.29500
C1341       C  0.38786532  0.79671077  0.42217661    -0.03800
C1342       C  0.37999584  0.81053077  0.39525278    -0.40300
H1343       H  0.41828673  0.78624885  0.47696324     0.12500
H1344       H  0.45316426  0.76478970  0.47394407     0.12100
H1345       H  0.44272844  0.75733853  0.35478363     0.11500
H1346       H  0.40819110  0.77990700  0.35793796     0.11800
H1347       H  0.47677289  0.73952734  0.38364844     0.14500
H1348       H  0.46570496  0.72878483  0.46742044     0.13300
H1349       H  0.37780423  0.79461630  0.44969086     0.11000
H1350       H  0.39061178  0.81431416  0.36787314     0.13000
C1351       C  0.29543830  0.52236469  0.45380499     0.19100
C1352       C  0.31436122  0.52452595  0.42330114    -0.19000
C1353       C  0.34765585  0.54132450  0.42587719    -0.11300
C1354       C  0.36282994  0.55684114  0.45898052     0.21300
C1355       C  0.34396160  0.55299173  0.49023815    -0.20600
C1356       C  0.31053876  0.53607801  0.48770003    -0.11500
C1357       C  0.39801643  0.57876145  0.46093952    -0.15600
C1358       C  0.41501985  0.59571049  0.43130486    -0.29500
C1359       C  0.26066972  0.50876753  0.44769260    -0.03800
C1360       C  0.23874830  0.49987155  0.47488091    -0.40300
H1361       H  0.30336459  0.51396261  0.39699973     0.12500
H1362       H  0.36141719  0.54267956  0.40160212     0.12100
H1363       H  0.35510109  0.56450016  0.51611877     0.11500
H1364       H  0.29691134  0.53534896  0.51178575     0.11800
H1365       H  0.40953136  0.58346805  0.48787382     0.14500
H1366       H  0.40314763  0.59287428  0.40493536     0.13300
H1367       H  0.25293542  0.50709051  0.41909983     0.11000
H1368       H  0.24515979  0.49964440  0.50359746     0.13000
loop_ 
_geom_bond_atom_site_label_1 
_geom_bond_atom_site_label_2 
_geom_bond_distance 
_geom_bond_site_symmetry_2 
_ccdc_geom_bond_type 
O1          Cr19   1.971       .  S
O1            C9   1.265       .  A
O2          Cr19   1.993       .  S
O2            C3   1.260       .  A
C3            O4   1.261       .  A
C3         C1286   1.491       .  S
O4          Cr20   2.006       .  S
O5          Cr20   1.998       .  S
O5            C6   1.264       .  A
C6            O7   1.263       .  A
C6         C1340   1.482       .  S
O7          Cr21   1.991       .  S
O8          Cr21   2.008       .  S
O8            C9   1.270       .  A
C9         C1306   1.468       .  S
O10         Cr19   1.996       .  S
O10          C18   1.258       .  A
O11         Cr19   1.967       .  S
O11          C12   1.263       .  A
C12          O13   1.268       .  A
C12        C1322   1.469       .  S
O13         Cr20   2.011       .  S
O14         Cr20   1.983       .  S
O14          C15   1.261       .  A
C15          O16   1.262       .  A
C15        C1358   1.472       .  S
O16         Cr21   1.989       .  S
O17         Cr21   2.009       .  S
O17          C18   1.260       .  A
C18        C1268   1.493       .  S
Cr19         O22   1.773       .  S
Cr20         O22   1.780       .  S
Cr21         O22   1.778       .  S
O23         Cr41   1.999       .  S
O23          C31   1.264       .  A
O24         Cr41   1.985       .  S
O24          C25   1.258       .  A
C25          O26   1.261       .  A
C25        C1198   1.478       .  S
O26         Cr42   2.001       .  S
O27         Cr42   1.986       .  S
O27          C28   1.265       .  A
C28          O29   1.271       .  A
C28        C1232   1.488       .  S
O29         Cr43   2.023       .  S
O30         Cr43   1.975       .  S
O30          C31   1.258       .  A
C31        C1178   1.474       .  S
O32         Cr41   1.973       .  S
O32          C40   1.257       .  A
O33         Cr41   2.005       .  S
O33          C34   1.265       .  A
C34          O35   1.264       .  A
C34        C1214   1.477       .  S
O35         Cr42   1.987       .  S
O36         Cr42   1.988       .  S
O36          C37   1.259       .  A
C37          O38   1.265       .  A
C37        C1250   1.472       .  S
O38         Cr43   1.999       .  S
O39         Cr43   2.040       .  S
O39          C40   1.272       .  A
C40        C1270   1.492       .  S
Cr41         O44   1.778       .  S
Cr42         O44   1.774       .  S
Cr43         O44   1.784       .  S
O45         Cr63   1.953       .  S
O45          C53   1.260       .  A
O46         Cr63   2.003       .  S
O46          C47   1.260       .  A
C47          O48   1.261       .  A
C47        C1288   1.479       .  S
O48         Cr64   2.006       .  S
O49         Cr64   2.008       .  S
O49          C50   1.265       .  A
C50          O51   1.258       .  A
C50        C1142   1.481       .  S
O51         Cr65   1.975       .  S
O52         Cr65   2.021       .  S
O52          C53   1.275       .  A
C53        C1108   1.466       .  S
O54         Cr63   1.995       .  S
O54          C62   1.259       .  A
O55         Cr63   1.960       .  S
O55          C56   1.259       .  A
C56          O57   1.273       .  A
C56        C1124   1.465       .  S
O57         Cr64   2.021       .  S
O58         Cr64   1.972       .  S
O58          C59   1.261       .  A
C59          O60   1.267       .  A
C59        C1162   1.478       .  S
O60         Cr65   2.009       .  S
O61         Cr65   1.992       .  S
O61          C62   1.256       .  A
C62        C1196   1.483       .  S
Cr63         O66   1.773       .  S
Cr64         O66   1.773       .  S
Cr65         O66   1.775       .  S
O67         Cr85   1.970       .  S
O67          C75   1.258       .  A
O68         Cr85   2.002       .  S
O68          C69   1.264       .  A
C69          O70   1.263       .  A
C69        C1090   1.482       .  S
O70         Cr86   1.992       .  S
O71         Cr86   2.007       .  S
O71          C72   1.264       .  A
C72          O73   1.261       .  A
C72        C1034   1.484       .  S
O73         Cr87   1.990       .  S
O74         Cr87   2.005       .  S
O74          C75   1.268       .  A
C75        C1052   1.472       .  S
O76         Cr85   2.007       .  S
O76          C84   1.263       .  A
O77         Cr85   1.985       .  S
O77          C78   1.262       .  A
C78          O79   1.267       .  A
C78        C1072   1.481       .  S
O79         Cr86   2.006       .  S
O80         Cr86   1.984       .  S
O80          C81   1.264       .  A
C81          O82   1.266       .  A
C81        C1216   1.478       .  S
O82         Cr87   2.005       .  S
O83         Cr87   1.987       .  S
O83          C84   1.260       .  A
C84        C1016   1.482       .  S
Cr85         O88   1.778       .  S
Cr86         O88   1.772       .  S
Cr87         O88   1.776       .  S
O89        Cr107   1.966       .  S
O89          C97   1.261       .  A
O90        Cr107   2.003       .  S
O90          C91   1.264       .  A
C91          O92   1.259       .  A
C91        C1000   1.478       .  S
O92        Cr108   1.983       .  S
O93        Cr108   2.031       .  S
O93          C94   1.269       .  A
C94          O95   1.255       .  A
C94         C962   1.482       .  S
O95        Cr109   1.966       .  S
O96        Cr109   2.010       .  S
O96          C97   1.267       .  A
C97         C944   1.468       .  S
O98        Cr107   2.014       .  S
O98         C106   1.264       .  A
O99        Cr107   1.970       .  S
O99         C100   1.262       .  A
C100        O101   1.274       .  A
C100        C982   1.477       .  S
O101       Cr108   2.023       .  S
O102       Cr108   1.955       .  S
O102        C103   1.255       .  A
C103        O104   1.267       .  A
C103       C1324   1.464       .  S
O104       Cr109   2.006       .  S
O105       Cr109   1.979       .  S
O105        C106   1.257       .  A
C106       C1018   1.481       .  S
Cr107       O110   1.772       .  S
Cr108       O110   1.777       .  S
Cr109       O110   1.770       .  S
O111       Cr129   2.032       .  S
O111        C119   1.278       .  A
O112       Cr129   1.968       .  S
O112        C113   1.258       .  A
C113        O114   1.269       .  A
C113        C928   1.479       .  S
O114       Cr130   2.019       .  S
O115       Cr130   2.003       .  S
O115        C116   1.259       .  A
C116        O117   1.258       .  A
C116       C1036   1.488       .  S
O117       Cr131   1.991       .  S
O118       Cr131   1.961       .  S
O118        C119   1.263       .  A
C119        C890   1.472       .  S
O120       Cr129   2.020       .  S
O120        C128   1.265       .  A
O121       Cr129   2.040       .  S
O121        C122   1.272       .  A
C122        O123   1.256       .  A
C122        C908   1.487       .  S
O123       Cr130   1.965       .  S
O124       Cr130   2.027       .  S
O124        C125   1.274       .  A
C125        O126   1.263       .  A
C125        C874   1.475       .  S
O126       Cr131   1.959       .  S
O127       Cr131   1.981       .  S
O127        C128   1.254       .  A
C128        C964   1.481       .  S
Cr129       O132   1.778       .  S
Cr130       O132   1.775       .  S
Cr131       O132   1.770       .  S
O133       Cr151   1.972       .  S
O133        C141   1.265       .  A
O134       Cr151   1.995       .  S
O134        C135   1.259       .  A
C135        O136   1.263       .  A
C135        C836   1.484       .  S
O136       Cr152   2.007       .  S
O137       Cr152   2.027       .  S
O137        C138   1.270       .  A
C138        O139   1.256       .  A
C138        C854   1.479       .  S
O139       Cr153   1.964       .  S
O140       Cr153   2.022       .  S
O140        C141   1.272       .  A
C141        C800   1.476       .  S
O142       Cr151   1.996       .  S
O142        C150   1.260       .  A
O143       Cr151   1.967       .  S
O143        C144   1.264       .  A
C144        O145   1.272       .  A
C144        C872   1.476       .  S
O145       Cr152   2.022       .  S
O146       Cr152   1.968       .  S
O146        C147   1.257       .  A
C147        O148   1.268       .  A
C147       C1252   1.480       .  S
O148       Cr153   2.021       .  S
O149       Cr153   1.997       .  S
O149        C150   1.259       .  A
C150        C820   1.486   1_554  S
Cr151       O154   1.771       .  S
Cr152       O154   1.779       .  S
Cr153       O154   1.775       .  S
O155       Cr173   1.996       .  S
O155        C163   1.264       .  A
O156       Cr173   1.986       .  S
O156        C157   1.260       .  A
C157        O158   1.264       .  A
C157        C818   1.478       .  S
O158       Cr174   2.004   1_545  S
O159       Cr174   1.981   1_545  S
O159        C160   1.261       .  A
C160        O161   1.269       .  A
C160        C784   1.483       .  S
O161       Cr175   2.020       .  S
O162       Cr175   1.971       .  S
O162        C163   1.258       .  A
C163        C946   1.468       .  S
O164       Cr173   1.986   1_565  S
O164        C172   1.261       .  A
O165       Cr173   2.002   1_565  S
O165        C166   1.263       .  A
C166        O167   1.261       .  A
C166        C764   1.467       .  S
O167       Cr174   1.973       .  S
O168       Cr174   2.000       .  S
O168        C169   1.265       .  A
C169        O170   1.261       .  A
C169       C1160   1.480       .  S
O170       Cr175   1.986   1_565  S
O171       Cr175   2.019   1_565  S
O171        C172   1.268       .  A
C172        C748   1.488       .  S
Cr173       O176   1.779       .  S
Cr174       O176   1.769   1_565  S
Cr175       O176   1.773       .  S
O177       Cr195   2.000       .  S
O177        C185   1.266       .  A
O178       Cr195   1.982       .  S
O178        C179   1.258       .  A
C179        O180   1.267       .  A
C179        C838   1.489       .  S
O180       Cr196   2.022       .  S
O181       Cr196   1.985       .  S
O181        C182   1.263       .  A
C182        O183   1.270       .  A
C182       C1342   1.484       .  S
O183       Cr197   2.015       .  S
O184       Cr197   1.962       .  S
O184        C185   1.256       .  A
C185        C710   1.466       .  S
O186       Cr195   1.984       .  S
O186        C194   1.260       .  A
O187       Cr195   2.004       .  S
O187        C188   1.265       .  A
C188        O189   1.263       .  A
C188        C692   1.468       .  S
O189       Cr196   1.971       .  S
O190       Cr196   2.021       .  S
O190        C191   1.268       .  A
C191        O192   1.260       .  A
C191        C728   1.485       .  S
O192       Cr197   1.982       .  S
O193       Cr197   2.018       .  S
O193        C194   1.266       .  A
C194        C746   1.489       .  S
Cr195       O198   1.778       .  S
Cr196       O198   1.774       .  S
Cr197       O198   1.773       .  S
O199       Cr217   2.017       .  S
O199        C207   1.272       .  A
O200       Cr217   1.985       .  S
O200        C201   1.259       .  A
C201        O202   1.261       .  A
C201       C1070   1.478       .  S
O202       Cr218   1.995       .  S
O203       Cr218   1.992       .  S
O203        C204   1.260       .  A
C204        O205   1.264       .  A
C204        C638   1.488   1_556  S
O205       Cr219   2.013       .  S
O206       Cr219   1.959       .  S
O206        C207   1.259       .  A
C207       C1106   1.468       .  S
O208       Cr217   1.997       .  S
O208        C216   1.260       .  A
O209       Cr217   2.018       .  S
O209        C210   1.270       .  A
C210        O211   1.263       .  A
C210        C676   1.489       .  S
O211       Cr218   1.984       .  S
O212       Cr218   2.006       .  S
O212        C213   1.267       .  A
C213        O214   1.264       .  A
C213        C802   1.474       .  S
O214       Cr219   1.979       .  S
O215       Cr219   2.007       .  S
O215        C216   1.261       .  A
C216        C656   1.493       .  S
Cr217       O220   1.781       .  S
Cr218       O220   1.781       .  S
Cr219       O220   1.784       .  S
O221       Cr239   2.017   1_565  S
O221        C229   1.269       .  A
O222       Cr239   1.963   1_565  S
O222        C223   1.255       .  A
C223        O224   1.271       .  A
C223        C620   1.477       .  S
O224       Cr240   2.027       .  S
O225       Cr240   1.993       .  S
O225        C226   1.262       .  A
C226        O227   1.264       .  A
C226        C640   1.488       .  S
O227       Cr241   2.006       .  S
O228       Cr241   1.965       .  S
O228        C229   1.263       .  A
C229       C1304   1.472       .  S
O230       Cr239   1.989       .  S
O230        C238   1.260       .  A
O231       Cr239   2.025       .  S
O231        C232   1.268       .  A
C232        O233   1.255       .  A
C232        C926   1.478       .  S
O233       Cr240   1.966   1_545  S
O234       Cr240   2.015   1_545  S
O234        C235   1.268       .  A
C235        O236   1.263       .  A
C235        C584   1.472       .  S
O236       Cr241   1.960   1_545  S
O237       Cr241   2.011   1_545  S
O237        C238   1.265       .  A
C238        C604   1.487       .  S
Cr239       O242   1.776   1_545  S
Cr240       O242   1.777       .  S
Cr241       O242   1.770       .  S
O243       Cr261   1.956       .  S
O243        C251   1.257       .  A
O244       Cr261   2.008       .  S
O244        C245   1.267       .  A
C245        O246   1.262       .  A
C245        C998   1.479       .  S
O246       Cr262   1.984       .  S
O247       Cr262   2.018       .  S
O247        C248   1.266       .  A
C248        O249   1.259       .  A
C248        C658   1.490       .  S
O249       Cr263   1.987       .  S
O250       Cr263   2.011       .  S
O250        C251   1.270       .  A
C251        C712   1.465       .  S
O252       Cr261   2.004       .  S
O252        C260   1.262       .  A
O253       Cr261   1.977       .  S
O253        C254   1.259       .  A
C254        O255   1.269       .  A
C254        C566   1.479       .  S
O255       Cr262   2.017       .  S
O256       Cr262   1.960       .  S
O256        C257   1.260       .  A
C257        O258   1.267       .  A
C257        C548   1.467       .  S
O258       Cr263   2.006       .  S
O259       Cr263   1.990       .  S
O259        C260   1.259       .  A
C260        C602   1.483       .  S
Cr261       O264   1.773       .  S
Cr262       O264   1.771       .  S
Cr263       O264   1.778       .  S
O265       Cr283   2.012       .  S
O265        C273   1.267       .  A
O266       Cr283   1.980       .  S
O266        C267   1.259       .  A
C267        O268   1.266       .  A
C267        C512   1.486       .  S
O268       Cr284   2.017       .  S
O269       Cr284   1.977       .  S
O269        C270   1.258       .  A
C270        O271   1.266       .  A
C270       C1360   1.475       .  S
O271       Cr285   2.004       .  S
O272       Cr285   1.972       .  S
O272        C273   1.261       .  A
C273        C892   1.476       .  S
O274       Cr283   1.982       .  S
O274        C282   1.259       .  A
O275       Cr283   2.007       .  S
O275        C276   1.267       .  A
C276        O277   1.256       .  A
C276        C496   1.465       .  S
O277       Cr284   1.959       .  S
O278       Cr284   2.022       .  S
O278        C279   1.270       .  A
C279        O280   1.262       .  A
C279        C730   1.485       .  S
O280       Cr285   1.982       .  S
O281       Cr285   2.009       .  S
O281        C282   1.264       .  A
C282        C530   1.481       .  S
Cr283       O286   1.775       .  S
Cr284       O286   1.774       .  S
Cr285       O286   1.771       .  S
O287       Cr305   1.957       .  S
O287        C295   1.259       .  A
O288       Cr305   2.005       .  S
O288        C289   1.263       .  A
C289        O290   1.259       .  A
C289        C532   1.482       .  S
O290       Cr306   1.989       .  S
O291       Cr306   2.006       .  S
O291        C292   1.265       .  A
C292        O293   1.263       .  A
C292       C1234   1.486       .  S
O293       Cr307   1.990       .  S
O294       Cr307   2.034       .  S
O294        C295   1.276       .  A
C295        C476   1.473       .  S
O296       Cr305   2.000       .  S
O296        C304   1.261       .  A
O297       Cr305   1.966       .  S
O297        C298   1.260       .  A
C298        O299   1.267       .  A
C298        C586   1.467       .  S
O299       Cr306   2.012       .  S
O300       Cr306   1.968       .  S
O300        C301   1.258       .  A
C301        O302   1.270       .  A
C301        C856   1.480       .  S
O302       Cr307   2.027       .  S
O303       Cr307   2.003       .  S
O303        C304   1.262       .  A
C304        C458   1.490       .  S
Cr305       O308   1.774       .  S
Cr306       O308   1.772       .  S
Cr307       O308   1.778       .  S
O309       Cr327   2.009   1_455  S
O309        C317   1.269       .  A
O310       Cr327   1.985   1_455  S
O310        C311   1.259       .  A
C311        O312   1.263   1_455  A
C311        C514   1.486       .  S
O312       Cr328   2.011       .  S
O313       Cr328   1.979   1_455  S
O313        C314   1.260       .  A
C314        O315   1.269       .  A
C314        C782   1.482       .  S
O315       Cr329   2.021   1_455  S
O316       Cr329   1.962   1_455  S
O316        C317   1.259       .  A
C317       C1054   1.469       .  S
O318       Cr327   1.985       .  S
O318        C326   1.258       .  A
O319       Cr327   2.008       .  S
O319        C320   1.268       .  A
C320        O321   1.257       .  A
C320        C550   1.465       .  S
O321       Cr328   1.960       .  S
O322       Cr328   2.008       .  S
O322        C323   1.267       .  A
C323        O324   1.263       .  A
C323       C1144   1.484       .  S
O324       Cr329   1.988       .  S
O325       Cr329   2.018       .  S
O325        C326   1.265       .  A
C326        C460   1.489       .  S
Cr327       O330   1.779       .  S
Cr328       O330   1.771       .  S
Cr329       O330   1.777       .  S
O331       Cr349   1.990       .  S
O331        C339   1.262       .  A
O332       Cr349   2.001       .  S
O332        C333   1.267       .  A
C333        O334   1.264       .  A
C333       C1088   1.482       .  S
O334       Cr350   1.987       .  S
O335       Cr350   2.021       .  S
O335        C336   1.268       .  A
C336        O337   1.262       .  A
C336        C442   1.487       .  S
O337       Cr351   1.984       .  S
O338       Cr351   1.995       .  S
O338        C339   1.261       .  A
C339        C478   1.474       .  S
O340       Cr349   2.012       .  S
O340        C348   1.267       .  A
O341       Cr349   1.997       .  S
O341        C342   1.264       .  A
C342        O343   1.266       .  A
C342        C674   1.492       .  S
O343       Cr350   2.011       .  S
O344       Cr350   1.982       .  S
O344        C345   1.261       .  A
C345        O346   1.260       .  A
C345        C766   1.464       .  S
O346       Cr351   1.991       .  S
O347       Cr351   1.985       .  S
O347        C348   1.261       .  A
C348        C422   1.482       .  S
Cr349       O352   1.774       .  S
Cr350       O352   1.775       .  S
Cr351       O352   1.780       .  S
O353       Cr371   2.030       .  S
O353        C361   1.273       .  A
O354       Cr371   1.956       .  S
O354        C355   1.254       .  A
C355        O356   1.271       .  A
C355        C622   1.474       .  S
O356       Cr372   2.033   1_655  S
O357       Cr372   1.993   1_655  S
O357        C358   1.259       .  A
C358        O359   1.261       .  A
C358        C406   1.482       .  S
O359       Cr373   1.998       .  S
O360       Cr373   1.954       .  S
O360        C361   1.259       .  A
C361       C1180   1.476       .  S
O362       Cr371   1.999   1_455  S
O362        C370   1.263       .  A
O363       Cr371   2.044   1_455  S
O363        C364   1.272       .  A
C364        O365   1.255       .  A
C364        C910   1.487       .  S
O365       Cr372   1.965       .  S
O366       Cr372   2.025       .  S
O366        C367   1.274       .  A
C367        O368   1.259       .  A
C367        C694   1.465       .  S
O368       Cr373   1.953   1_455  S
O369       Cr373   1.999   1_455  S
O369        C370   1.263       .  A
C370        C424   1.487       .  S
Cr371       O374   1.772       .  S
Cr372       O374   1.770   1_455  S
Cr373       O374   1.767       .  S
O375       Cr393   2.006       .  S
O375        C383   1.264       .  A
O376       Cr393   1.979       .  S
O376        C377   1.262       .  A
C377        O378   1.267       .  A
C377        C568   1.477       .  S
O378       Cr394   2.007       .  S
O379       Cr394   1.996       .  S
O379        C380   1.260       .  A
C380        O381   1.262       .  A
C380        C440   1.488       .  S
O381       Cr395   2.002       .  S
O382       Cr395   1.966       .  S
O382        C383   1.260       .  A
C383        C494   1.467       .  S
O384       Cr393   1.990       .  S
O384        C392   1.261       .  A
O385       Cr393   1.994       .  S
O385        C386   1.262       .  A
C386        O387   1.261       .  A
C386        C980   1.476       .  S
O387       Cr394   1.988       .  S
O388       Cr394   2.011       .  S
O388        C389   1.271       .  A
C389        O390   1.258       .  A
C389       C1126   1.468       .  S
O390       Cr395   1.961       .  S
O391       Cr395   1.999       .  S
O391        C392   1.263       .  A
C392        C404   1.479       .  S
Cr393       O396   1.775       .  S
Cr394       O396   1.773       .  S
Cr395       O396   1.772       .  S
C397        C405   1.486       .  S
C397        C398   1.404       .  A
C397        C402   1.406       .  A
C398        C399   1.399       .  A
C398        H407   1.083       .  S
C399        C400   1.405       .  A
C399        H408   1.082       .  S
C400        C403   1.486       .  S
C400        C401   1.406       .  A
C401        C402   1.402       .  A
C401        H409   1.083       .  S
C402        H410   1.083       .  S
C403        H411   1.087       .  S
C403        C404   1.349       .  D
C404        H412   1.085       .  S
C405        H413   1.087       .  S
C405        C406   1.349       .  D
C406        H414   1.085       .  S
C415        C423   1.490       .  S
C415        C416   1.403       .  A
C415        C420   1.406       .  A
C416        C417   1.397       .  A
C416        H425   1.083       .  S
C417        C418   1.409       .  A
C417        H426   1.079       .  S
C418        C421   1.500   1_554  S
C418        C419   1.409       .  A
C419        C420   1.406       .  A
C419        H427   1.083   1_554  S
C420        H428   1.082       .  S
C421        H429   1.087       .  S
C421        C422   1.352       .  D
C422        H430   1.083   1_556  S
C423        H431   1.087       .  S
C423        C424   1.351       .  D
C424        H432   1.085       .  S
C433        C441   1.500       .  S
C433        C434   1.407   1_455  A
C433        C438   1.409       .  A
C434        C435   1.404       .  A
C434        H443   1.083       .  S
C435        C436   1.408       .  A
C435        H444   1.081       .  S
C436        C439   1.497       .  S
C436        C437   1.406       .  A
C437        C438   1.402   1_655  A
C437        H445   1.083   1_655  S
C438        H446   1.080       .  S
C439        H447   1.087       .  S
C439        C440   1.353       .  D
C440        H448   1.084       .  S
C441        H449   1.087       .  S
C441        C442   1.352       .  D
C442        H450   1.084       .  S
C451        C459   1.500       .  S
C451        C452   1.408       .  A
C451        C456   1.408       .  A
C452        C453   1.406       .  A
C452        H461   1.083       .  S
C453        C454   1.407       .  A
C453        H462   1.081       .  S
C454        C457   1.498   1_556  S
C454        C455   1.407       .  A
C455        C456   1.402       .  A
C455        H463   1.084   1_556  S
C456        H464   1.081       .  S
C457        H465   1.087       .  S
C457        C458   1.354       .  D
C458        H466   1.084   1_554  S
C459        H467   1.087       .  S
C459        C460   1.353       .  D
C460        H468   1.084       .  S
C469        C477   1.488       .  S
C469        C470   1.402   1_556  A
C469        C474   1.410   1_455  A
C470        C471   1.398   1_455  A
C470        H479   1.083       .  S
C471        C472   1.410       .  A
C471        H480   1.082   1_655  S
C472        C475   1.487       .  S
C472        C473   1.401   1_554  A
C473        C474   1.399       .  A
C473        H481   1.083       .  S
C474        H482   1.081       .  S
C475        H483   1.087       .  S
C475        C476   1.342       .  D
C476        H484   1.086       .  S
C477        H485   1.087       .  S
C477        C478   1.343       .  D
C478        H486   1.085       .  S
C487        C495   1.476       .  S
C487        C488   1.400   1_455  A
C487        C492   1.405       .  A
C488        C489   1.395       .  A
C488        H497   1.083       .  S
C489        C490   1.408       .  A
C489        H498   1.081       .  S
C490        C493   1.478       .  S
C490        C491   1.401       .  A
C491        C492   1.393   1_655  A
C491        H499   1.083   1_655  S
C492        H500   1.083       .  S
C493        H501   1.087       .  S
C493        C494   1.343       .  D
C494        H502   1.084       .  S
C495        H503   1.086       .  S
C495        C496   1.341       .  D
C496        H504   1.086       .  S
C505        C513   1.500       .  S
C505        C506   1.407       .  A
C505        C510   1.410       .  A
C506        C507   1.403       .  A
C506        H515   1.084       .  S
C507        C508   1.409       .  A
C507        H516   1.081       .  S
C508        C511   1.497       .  S
C508        C509   1.405       .  A
C509        C510   1.402       .  A
C509        H517   1.084       .  S
C510        H518   1.080       .  S
C511        H519   1.087       .  S
C511        C512   1.351       .  D
C512        H520   1.084       .  S
C513        H521   1.087       .  S
C513        C514   1.351       .  D
C514        H522   1.083       .  S
C523        C531   1.489       .  S
C523        C524   1.403   1_655  A
C523        C528   1.406       .  A
C524        C525   1.399       .  A
C524        H533   1.084       .  S
C525        C526   1.410       .  A
C525        H534   1.079       .  S
C526        C529   1.497       .  S
C526        C527   1.407   1_455  A
C527        C528   1.402       .  A
C527        H535   1.083       .  S
C528        H536   1.082       .  S
C529        H537   1.088       .  S
C529        C530   1.350       .  D
C530        H538   1.083       .  S
C531        H539   1.087       .  S
C531        C532   1.349       .  D
C532        H540   1.085       .  S
C541        C549   1.477       .  S
C541        C542   1.406       .  A
C541        C546   1.401       .  A
C542        C543   1.392       .  A
C542        H551   1.082       .  S
C543        C544   1.405       .  A
C543        H552   1.082       .  S
C544        C547   1.475       .  S
C544        C545   1.402       .  A
C545        C546   1.396       .  A
C545        H553   1.084       .  S
C546        H554   1.083       .  S
C547        H555   1.087       .  S
C547        C548   1.344       .  D
C548        H556   1.085       .  S
C549        H557   1.087       .  S
C549        C550   1.341       .  D
C550        H558   1.086       .  S
C559        C567   1.488       .  S
C559        C560   1.404       .  A
C559        C564   1.406       .  A
C560        C561   1.401       .  A
C560        H569   1.084       .  S
C561        C562   1.410       .  A
C561        H570   1.079       .  S
C562        C565   1.491       .  S
C562        C563   1.404       .  A
C563        C564   1.397       .  A
C563        H571   1.084       .  S
C564        H572   1.081       .  S
C565        H573   1.087       .  S
C565        C566   1.348       .  D
C566        H574   1.083       .  S
C567        H575   1.087       .  S
C567        C568   1.347       .  D
C568        H576   1.085       .  S
C577        C585   1.481       .  S
C577        C578   1.405       .  A
C577        C582   1.405       .  A
C578        C579   1.400       .  A
C578        H587   1.083       .  S
C579        C580   1.406       .  A
C579        H588   1.082       .  S
C580        C583   1.475       .  S
C580        C581   1.400       .  A
C581        C582   1.390       .  A
C581        H589   1.083       .  S
C582        H590   1.081       .  S
C583        H591   1.088       .  S
C583        C584   1.343       .  D
C584        H592   1.086       .  S
C585        H593   1.087       .  S
C585        C586   1.346       .  D
C586        H594   1.085       .  S
C595        C603   1.492       .  S
C595        C596   1.403       .  A
C595        C600   1.408       .  A
C596        C597   1.398       .  A
C596        H605   1.083       .  S
C597        C598   1.409       .  A
C597        H606   1.080       .  S
C598        C601   1.499       .  S
C598        C599   1.408       .  A
C599        C600   1.406       .  A
C599        H607   1.083       .  S
C600        H608   1.082       .  S
C601        H609   1.087       .  S
C601        C602   1.351       .  D
C602        H610   1.083       .  S
C603        H611   1.087       .  S
C603        C604   1.349       .  D
C604        H612   1.085       .  S
C613        C621   1.490       .  S
C613        C614   1.402       .  A
C613        C618   1.410       .  A
C614        C615   1.402       .  A
C614        H623   1.083       .  S
C615        C616   1.411       .  A
C615        H624   1.082       .  S
C616        C619   1.488       .  S
C616        C617   1.400       .  A
C617        C618   1.397       .  A
C617        H625   1.083       .  S
C618        H626   1.082       .  S
C619        H627   1.087       .  S
C619        C620   1.342       .  D
C620        H628   1.086       .  S
C621        H629   1.087       .  S
C621        C622   1.342       .  D
C622        H630   1.087       .  S
C631        C639   1.491       .  S
C631        C632   1.405       .  A
C631        C636   1.406       .  A
C632        C633   1.403       .  A
C632        H641   1.083       .  S
C633        C634   1.407       .  A
C633        H642   1.082       .  S
C634        C637   1.497       .  S
C634        C635   1.408       .  A
C635        C636   1.405       .  A
C635        H643   1.083       .  S
C636        H644   1.083       .  S
C637        H645   1.087       .  S
C637        C638   1.352       .  D
C638        H646   1.085       .  S
C639        H647   1.087       .  S
C639        C640   1.351       .  D
C640        H648   1.086       .  S
C649        C657   1.503       .  S
C649        C650   1.408   1_545  A
C649        C654   1.409       .  A
C650        C651   1.407       .  A
C650        H659   1.083       .  S
C651        C652   1.408       .  A
C651        H660   1.081       .  S
C652        C655   1.501       .  S
C652        C653   1.407   1_565  A
C653        C654   1.403       .  A
C653        H661   1.084       .  S
C654        H662   1.080       .  S
C655        H663   1.087       .  S
C655        C656   1.355       .  D
C656        H664   1.084       .  S
C657        H665   1.087       .  S
C657        C658   1.354       .  D
C658        H666   1.084       .  S
C667        C675   1.503       .  S
C667        C668   1.409       .  A
C667        C672   1.408       .  A
C668        C669   1.407       .  A
C668        H677   1.084       .  S
C669        C670   1.409       .  A
C669        H678   1.080       .  S
C670        C673   1.500       .  S
C670        C671   1.407       .  A
C671        C672   1.401       .  A
C671        H679   1.084       .  S
C672        H680   1.079       .  S
C673        H681   1.087       .  S
C673        C674   1.354       .  D
C674        H682   1.084       .  S
C675        H683   1.087       .  S
C675        C676   1.355       .  D
C676        H684   1.083       .  S
C685        C693   1.477       .  S
C685        C686   1.400       .  A
C685        C690   1.406       .  A
C686        C687   1.396       .  A
C686        H695   1.084       .  S
C687        C688   1.409       .  A
C687        H696   1.080       .  S
C688        C691   1.480       .  S
C688        C689   1.401       .  A
C689        C690   1.393       .  A
C689        H697   1.084       .  S
C690        H698   1.082       .  S
C691        H699   1.088       .  S
C691        C692   1.342       .  D
C692        H700   1.085       .  S
C693        H701   1.087       .  S
C693        C694   1.340       .  D
C694        H702   1.087       .  S
C703        C711   1.478       .  S
C703        C704   1.401   1_545  A
C703        C708   1.407       .  A
C704        C705   1.396       .  A
C704        H713   1.083       .  S
C705        C706   1.407       .  A
C705        H714   1.082       .  S
C706        C709   1.476       .  S
C706        C707   1.400   1_565  A
C707        C708   1.393       .  A
C707        H715   1.084       .  S
C708        H716   1.082       .  S
C709        H717   1.088       .  S
C709        C710   1.340       .  D
C710        H718   1.086       .  S
C711        H719   1.087       .  S
C711        C712   1.341       .  D
C712        H720   1.086       .  S
C721        C729   1.496       .  S
C721        C722   1.406       .  A
C721        C726   1.408       .  A
C722        C723   1.402       .  A
C722        H731   1.083       .  S
C723        C724   1.409       .  A
C723        H732   1.080       .  S
C724        C727   1.497       .  S
C724        C725   1.406       .  A
C725        C726   1.401       .  A
C725        H733   1.083       .  S
C726        H734   1.081       .  S
C727        H735   1.087       .  S
C727        C728   1.351       .  D
C728        H736   1.083       .  S
C729        H737   1.086       .  S
C729        C730   1.350       .  D
C730        H738   1.084       .  S
C739        C747   1.502       .  S
C739        C740   1.407       .  A
C739        C744   1.410       .  A
C740        C741   1.405       .  A
C740        H749   1.084       .  S
C741        C742   1.410       .  A
C741        H750   1.079       .  S
C742        C745   1.502       .  S
C742        C743   1.406       .  A
C743        C744   1.403       .  A
C743        H751   1.084       .  S
C744        H752   1.079       .  S
C745        H753   1.088       .  S
C745        C746   1.353       .  D
C746        H754   1.084       .  S
C747        H755   1.088       .  S
C747        C748   1.352       .  D
C748        H756   1.084       .  S
C757        C765   1.479       .  S
C757        C758   1.401       .  A
C757        C762   1.407       .  A
C758        C759   1.396       .  A
C758        H767   1.083       .  S
C759        C760   1.406       .  A
C759        H768   1.082       .  S
C760        C763   1.476       .  S
C760        C761   1.400       .  A
C761        C762   1.394       .  A
C761        H769   1.084       .  S
C762        H770   1.082       .  S
C763        H771   1.087       .  S
C763        C764   1.341       .  D
C764        H772   1.086       .  S
C765        H773   1.087       .  S
C765        C766   1.340       .  D
C766        H774   1.086       .  S
C775        C783   1.495       .  S
C775        C776   1.405       .  A
C775        C780   1.409       .  A
C776        C777   1.401       .  A
C776        H785   1.084       .  S
C777        C778   1.408       .  A
C777        H786   1.080       .  S
C778        C781   1.494       .  S
C778        C779   1.405       .  A
C779        C780   1.401       .  A
C779        H787   1.084       .  S
C780        H788   1.080       .  S
C781        H789   1.087       .  S
C781        C782   1.349       .  D
C782        H790   1.084       .  S
C783        H791   1.087       .  S
C783        C784   1.350       .  D
C784        H792   1.083       .  S
C793        C801   1.491       .  S
C793        C794   1.404   1_565  A
C793        C798   1.409   1_556  A
C794        C795   1.399       .  A
C794        H803   1.083       .  S
C795        C796   1.409   1_556  A
C795        H804   1.080       .  S
C796        C799   1.490       .  S
C796        C797   1.403   1_545  A
C797        C798   1.397       .  A
C797        H805   1.083       .  S
C798        H806   1.080       .  S
C799        H807   1.087       .  S
C799        C800   1.347       .  D
C800        H808   1.083   1_554  S
C801        H809   1.088       .  S
C801        C802   1.345       .  D
C802        H810   1.083   1_556  S
C811        C819   1.489       .  S
C811        C812   1.402       .  A
C811        C816   1.409       .  A
C812        C813   1.394       .  A
C812        H821   1.084       .  S
C813        C814   1.407       .  A
C813        H822   1.081       .  S
C814        C817   1.494       .  S
C814        C815   1.407       .  A
C815        C816   1.407       .  A
C815        H823   1.083       .  S
C816        H824   1.081       .  S
C817        H825   1.087       .  S
C817        C818   1.348       .  D
C818        H826   1.085       .  S
C819        H827   1.087   1_556  S
C819        C820   1.350       .  D
C820        H828   1.085       .  S
C829        C837   1.503       .  S
C829        C830   1.408   1_565  A
C829        C834   1.410       .  A
C830        C831   1.403       .  A
C830        H839   1.083       .  S
C831        C832   1.403       .  A
C831        H840   1.083       .  S
C832        C835   1.500       .  S
C832        C833   1.410   1_545  A
C833        C834   1.404       .  A
C833        H841   1.082       .  S
C834        H842   1.080       .  S
C835        H843   1.087       .  S
C835        C836   1.347       .  D
C836        H844   1.085       .  S
C837        H845   1.087       .  S
C837        C838   1.354       .  D
C838        H846   1.083       .  S
C847        C855   1.492       .  S
C847        C848   1.402       .  A
C847        C852   1.410       .  A
C848        C849   1.401       .  A
C848        H857   1.083       .  S
C849        C850   1.410       .  A
C849        H858   1.082       .  S
C850        C853   1.492       .  S
C850        C851   1.402       .  A
C851        C852   1.401       .  A
C851        H859   1.083       .  S
C852        H860   1.082       .  S
C853        H861   1.086       .  S
C853        C854   1.345       .  D
C854        H862   1.086       .  S
C855        H863   1.086       .  S
C855        C856   1.345       .  D
C856        H864   1.086       .  S
C865        C873   1.482       .  S
C865        C866   1.404       .  A
C865        C870   1.404       .  A
C866        C867   1.397       .  A
C866        H875   1.083       .  S
C867        C868   1.407       .  A
C867        H876   1.081       .  S
C868        C871   1.487       .  S
C868        C869   1.406       .  A
C869        C870   1.398       .  A
C869        H877   1.083       .  S
C870        H878   1.082       .  S
C871        H879   1.087       .  S
C871        C872   1.349       .  D
C872        H880   1.083       .  S
C873        H881   1.087       .  S
C873        C874   1.348       .  D
C874        H882   1.084       .  S
C883        C891   1.485       .  S
C883        C884   1.402       .  A
C883        C888   1.409       .  A
C884        C885   1.395       .  A
C884        H893   1.084       .  S
C885        C886   1.406       .  A
C885        H894   1.082       .  S
C886        C889   1.483       .  S
C886        C887   1.402       .  A
C887        C888   1.400       .  A
C887        H895   1.083       .  S
C888        H896   1.081       .  S
C889        H897   1.087       .  S
C889        C890   1.344       .  D
C890        H898   1.086       .  S
C891        H899   1.087       .  S
C891        C892   1.346       .  D
C892        H900   1.085       .  S
C901        C909   1.498       .  S
C901        C902   1.402   1_565  A
C901        C906   1.411       .  A
C902        C903   1.404       .  A
C902        H911   1.083   1_545  S
C903        C904   1.411       .  A
C903        H912   1.082       .  S
C904        C907   1.501       .  S
C904        C905   1.404       .  A
C905        C906   1.406   1_545  A
C905        H913   1.083       .  S
C906        H914   1.082       .  S
C907        H915   1.087       .  S
C907        C908   1.348       .  D
C908        H916   1.087       .  S
C909        H917   1.087       .  S
C909        C910   1.346       .  D
C910        H918   1.087       .  S
C919        C927   1.492       .  S
C919        C920   1.403       .  A
C919        C924   1.410       .  A
C920        C921   1.401   1_455  A
C920        H929   1.084       .  S
C921        C922   1.410       .  A
C921        H930   1.082       .  S
C922        C925   1.491       .  S
C922        C923   1.401       .  A
C923        C924   1.400   1_655  A
C923        H931   1.084       .  S
C924        H932   1.081       .  S
C925        H933   1.087       .  S
C925        C926   1.344       .  D
C926        H934   1.086       .  S
C927        H935   1.087       .  S
C927        C928   1.345       .  D
C928        H936   1.086       .  S
C937        C945   1.483       .  S
C937        C938   1.404       .  A
C937        C942   1.407       .  A
C938        C939   1.396       .  A
C938        H947   1.084       .  S
C939        C940   1.402       .  A
C939        H948   1.083       .  S
C940        C943   1.480       .  S
C940        C941   1.406       .  A
C941        C942   1.394       .  A
C941        H949   1.081       .  S
C942        H950   1.079       .  S
C943        H951   1.087       .  S
C943        C944   1.344       .  D
C944        H952   1.084       .  S
C945        H953   1.087       .  S
C945        C946   1.345       .  D
C946        H954   1.082       .  S
C955        C963   1.500       .  S
C955        C956   1.402       .  A
C955        C960   1.411       .  A
C956        C957   1.403       .  A
C956        H965   1.083       .  S
C957        C958   1.413       .  A
C957        H966   1.080       .  S
C958        C961   1.501       .  S
C958        C959   1.404       .  A
C959        C960   1.401       .  A
C959        H967   1.084       .  S
C960        H968   1.082       .  S
C961        H969   1.087       .  S
C961        C962   1.347       .  D
C962        H970   1.083       .  S
C963        H971   1.086       .  S
C963        C964   1.344       .  D
C964        H972   1.086       .  S
C973        C981   1.491       .  S
C973        C974   1.402       .  A
C973        C978   1.410       .  A
C974        C975   1.396       .  A
C974        H983   1.084       .  S
C975        C976   1.410       .  A
C975        H984   1.079       .  S
C976        C979   1.494       .  S
C976        C977   1.404       .  A
C977        C978   1.401       .  A
C977        H985   1.084       .  S
C978        H986   1.080       .  S
C979        H987   1.087       .  S
C979        C980   1.347       .  D
C980        H988   1.082       .  S
C981        H989   1.088       .  S
C981        C982   1.346       .  D
C982        H990   1.083       .  S
C991        C999   1.487       .  S
C991        C992   1.404       .  A
C991        C996   1.406       .  A
C992        C993   1.399       .  A
C992       H1001   1.083       .  S
C993        C994   1.407       .  A
C993       H1002   1.080       .  S
C994        C997   1.489       .  S
C994        C995   1.405       .  A
C995        C996   1.398       .  A
C995       H1003   1.083       .  S
C996       H1004   1.081       .  S
C997       H1005   1.087       .  S
C997        C998   1.350       .  D
C998       H1006   1.083       .  S
C999       H1007   1.087       .  S
C999       C1000   1.348       .  D
C1000      H1008   1.084       .  S
C1009      C1017   1.494       .  S
C1009      C1010   1.405       .  A
C1009      C1014   1.408       .  A
C1010      C1011   1.401       .  A
C1010      H1019   1.084       .  S
C1011      C1012   1.409       .  A
C1011      H1020   1.081       .  S
C1012      C1015   1.493       .  S
C1012      C1013   1.405       .  A
C1013      C1014   1.401       .  A
C1013      H1021   1.084       .  S
C1014      H1022   1.081       .  S
C1015      H1023   1.087       .  S
C1015      C1016   1.348       .  D
C1016      H1024   1.085       .  S
C1017      H1025   1.087       .  S
C1017      C1018   1.349       .  D
C1018      H1026   1.084       .  S
C1027      C1035   1.492       .  S
C1027      C1028   1.405       .  A
C1027      C1032   1.407       .  A
C1028      C1029   1.398       .  A
C1028      H1037   1.084       .  S
C1029      C1030   1.409       .  A
C1029      H1038   1.080       .  S
C1030      C1033   1.499   1_554  S
C1030      C1031   1.408       .  A
C1031      C1032   1.406       .  A
C1031      H1039   1.083       .  S
C1032      H1040   1.081       .  S
C1033      H1041   1.087       .  S
C1033      C1034   1.351       .  D
C1034      H1042   1.083   1_556  S
C1035      H1043   1.088       .  S
C1035      C1036   1.353       .  D
C1036      H1044   1.085       .  S
C1045      C1053   1.483       .  S
C1045      C1046   1.403       .  A
C1045      C1050   1.407       .  A
C1046      C1047   1.398       .  A
C1046      H1055   1.083       .  S
C1047      C1048   1.407       .  A
C1047      H1056   1.081       .  S
C1048      C1051   1.481       .  S
C1048      C1049   1.401       .  A
C1049      C1050   1.394       .  A
C1049      H1057   1.084       .  S
C1050      H1058   1.081       .  S
C1051      H1059   1.087       .  S
C1051      C1052   1.344       .  D
C1052      H1060   1.085       .  S
C1053      H1061   1.087       .  S
C1053      C1054   1.344       .  D
C1054      H1062   1.084       .  S
C1063      C1071   1.489       .  S
C1063      C1064   1.405       .  A
C1063      C1068   1.408       .  A
C1064      C1065   1.397       .  A
C1064      H1073   1.083       .  S
C1065      C1066   1.406       .  A
C1065      H1074   1.083       .  S
C1066      C1069   1.489       .  S
C1066      C1067   1.404       .  A
C1067      C1068   1.402       .  A
C1067      H1075   1.082       .  S
C1068      H1076   1.081       .  S
C1069      H1077   1.086       .  S
C1069      C1070   1.348       .  D
C1070      H1078   1.085       .  S
C1071      H1079   1.088       .  S
C1071      C1072   1.349       .  D
C1072      H1080   1.085       .  S
C1081      C1089   1.491       .  S
C1081      C1082   1.406       .  A
C1081      C1086   1.406       .  A
C1082      C1083   1.401       .  A
C1082      H1091   1.084       .  S
C1083      C1084   1.407       .  A
C1083      H1092   1.079       .  S
C1084      C1087   1.492       .  S
C1084      C1085   1.406       .  A
C1085      C1086   1.399       .  A
C1085      H1093   1.083       .  S
C1086      H1094   1.080       .  S
C1087      H1095   1.087       .  S
C1087      C1088   1.351       .  D
C1088      H1096   1.083       .  S
C1089      H1097   1.087       .  S
C1089      C1090   1.352       .  D
C1090      H1098   1.084       .  S
C1099      C1107   1.482       .  S
C1099      C1100   1.402       .  A
C1099      C1104   1.408       .  A
C1100      C1101   1.397       .  A
C1100      H1109   1.084       .  S
C1101      C1102   1.407       .  A
C1101      H1110   1.082       .  S
C1102      C1105   1.480       .  S
C1102      C1103   1.401       .  A
C1103      C1104   1.395       .  A
C1103      H1111   1.084       .  S
C1104      H1112   1.081       .  S
C1105      H1113   1.087       .  S
C1105      C1106   1.341       .  D
C1106      H1114   1.086       .  S
C1107      H1115   1.088       .  S
C1107      C1108   1.341       .  D
C1108      H1116   1.085       .  S
C1117      C1125   1.482       .  S
C1117      C1118   1.401       .  A
C1117      C1122   1.410       .  A
C1118      C1119   1.392       .  A
C1118      H1127   1.083       .  S
C1119      C1120   1.406       .  A
C1119      H1128   1.082       .  S
C1120      C1123   1.478       .  S
C1120      C1121   1.400       .  A
C1121      C1122   1.397       .  A
C1121      H1129   1.083       .  S
C1122      H1130   1.080       .  S
C1123      H1131   1.087       .  S
C1123      C1124   1.341       .  D
C1124      H1132   1.085       .  S
C1125      H1133   1.087       .  S
C1125      C1126   1.341       .  D
C1126      H1134   1.083       .  S
C1135      C1143   1.493       .  S
C1135      C1136   1.405       .  A
C1135      C1140   1.408       .  A
C1136      C1137   1.398   1_545  A
C1136      H1145   1.083       .  S
C1137      C1138   1.406       .  A
C1137      H1146   1.081       .  S
C1138      C1141   1.494       .  S
C1138      C1139   1.407       .  A
C1139      C1140   1.403   1_565  A
C1139      H1147   1.083       .  S
C1140      H1148   1.080       .  S
C1141      H1149   1.087       .  S
C1141      C1142   1.352       .  D
C1142      H1150   1.083       .  S
C1143      H1151   1.087       .  S
C1143      C1144   1.351       .  D
C1144      H1152   1.083       .  S
C1153      C1161   1.489       .  S
C1153      C1154   1.406       .  A
C1153      C1158   1.405       .  A
C1154      C1155   1.401   1_655  A
C1154      H1163   1.083       .  S
C1155      C1156   1.408       .  A
C1155      H1164   1.080       .  S
C1156      C1159   1.489       .  S
C1156      C1157   1.405       .  A
C1157      C1158   1.396   1_455  A
C1157      H1165   1.083       .  S
C1158      H1166   1.081       .  S
C1159      H1167   1.087       .  S
C1159      C1160   1.350       .  D
C1160      H1168   1.083       .  S
C1161      H1169   1.086       .  S
C1161      C1162   1.350       .  D
C1162      H1170   1.083       .  S
C1171      C1179   1.483       .  S
C1171      C1172   1.405       .  A
C1171      C1176   1.405       .  A
C1172      C1173   1.397       .  A
C1172      H1181   1.084       .  S
C1173      C1174   1.406       .  A
C1173      H1182   1.081       .  S
C1174      C1177   1.485       .  S
C1174      C1175   1.404       .  A
C1175      C1176   1.397       .  A
C1175      H1183   1.083       .  S
C1176      H1184   1.081       .  S
C1177      H1185   1.087       .  S
C1177      C1178   1.346       .  D
C1178      H1186   1.085       .  S
C1179      H1187   1.088       .  S
C1179      C1180   1.350       .  D
C1180      H1188   1.084       .  S
C1189      C1197   1.497   1_556  S
C1189      C1190   1.408       .  A
C1189      C1194   1.410       .  A
C1190      C1191   1.404       .  A
C1190      H1199   1.083   1_556  S
C1191      C1192   1.407       .  A
C1191      H1200   1.082       .  S
C1192      C1195   1.487       .  S
C1192      C1193   1.402       .  A
C1193      C1194   1.396       .  A
C1193      H1201   1.083       .  S
C1194      H1202   1.079       .  S
C1195      H1203   1.087       .  S
C1195      C1196   1.348       .  D
C1196      H1204   1.084       .  S
C1197      H1205   1.087       .  S
C1197      C1198   1.348       .  D
C1198      H1206   1.082   1_554  S
C1207      C1215   1.491       .  S
C1207      C1208   1.403       .  A
C1207      C1212   1.409       .  A
C1208      C1209   1.399       .  A
C1208      H1217   1.083       .  S
C1209      C1210   1.409       .  A
C1209      H1218   1.081       .  S
C1210      C1213   1.492   1_556  S
C1210      C1211   1.404   1_556  A
C1211      C1212   1.400   1_554  A
C1211      H1219   1.083       .  S
C1212      H1220   1.081       .  S
C1213      H1221   1.087       .  S
C1213      C1214   1.346       .  D
C1214      H1222   1.084       .  S
C1215      H1223   1.087       .  S
C1215      C1216   1.346       .  D
C1216      H1224   1.084       .  S
C1225      C1233   1.500       .  S
C1225      C1226   1.406       .  A
C1225      C1230   1.410       .  A
C1226      C1227   1.404       .  A
C1226      H1235   1.084       .  S
C1227      C1228   1.409       .  A
C1227      H1236   1.080       .  S
C1228      C1231   1.500       .  S
C1228      C1229   1.406       .  A
C1229      C1230   1.402       .  A
C1229      H1237   1.083       .  S
C1230      H1238   1.080       .  S
C1231      H1239   1.087       .  S
C1231      C1232   1.352       .  D
C1232      H1240   1.083       .  S
C1233      H1241   1.087       .  S
C1233      C1234   1.351       .  D
C1234      H1242   1.083       .  S
C1243      C1251   1.492       .  S
C1243      C1244   1.403       .  A
C1243      C1248   1.409       .  A
C1244      C1245   1.402       .  A
C1244      H1253   1.084       .  S
C1245      C1246   1.411       .  A
C1245      H1254   1.082       .  S
C1246      C1249   1.492       .  S
C1246      C1247   1.402       .  A
C1247      C1248   1.400       .  A
C1247      H1255   1.083       .  S
C1248      H1256   1.082       .  S
C1249      H1257   1.088       .  S
C1249      C1250   1.344       .  D
C1250      H1258   1.085       .  S
C1251      H1259   1.087       .  S
C1251      C1252   1.345       .  D
C1252      H1260   1.087       .  S
C1261      C1269   1.505       .  S
C1261      C1262   1.403       .  A
C1261      C1266   1.415       .  A
C1262      C1263   1.400       .  A
C1262      H1271   1.084       .  S
C1263      C1264   1.405       .  A
C1263      H1272   1.083       .  S
C1264      C1267   1.497       .  S
C1264      C1265   1.408       .  A
C1265      C1266   1.411       .  A
C1265      H1273   1.082       .  S
C1266      H1274   1.081       .  S
C1267      H1275   1.087       .  S
C1267      C1268   1.354       .  D
C1268      H1276   1.085       .  S
C1269      H1277   1.087       .  S
C1269      C1270   1.349       .  D
C1270      H1278   1.085       .  S
C1279      C1287   1.494       .  S
C1279      C1280   1.407       .  A
C1279      C1284   1.405       .  A
C1280      C1281   1.408       .  A
C1280      H1289   1.083       .  S
C1281      C1282   1.409       .  A
C1281      H1290   1.081       .  S
C1282      C1285   1.494       .  S
C1282      C1283   1.406       .  A
C1283      C1284   1.396       .  A
C1283      H1291   1.084       .  S
C1284      H1292   1.083       .  S
C1285      H1293   1.087       .  S
C1285      C1286   1.354       .  D
C1286      H1294   1.085       .  S
C1287      H1295   1.086       .  S
C1287      C1288   1.347       .  D
C1288      H1296   1.087       .  S
C1297      C1305   1.482       .  S
C1297      C1298   1.403       .  A
C1297      C1302   1.407       .  A
C1298      C1299   1.398       .  A
C1298      H1307   1.083       .  S
C1299      C1300   1.407       .  A
C1299      H1308   1.081       .  S
C1300      C1303   1.481       .  S
C1300      C1301   1.402       .  A
C1301      C1302   1.393       .  A
C1301      H1309   1.083       .  S
C1302      H1310   1.081       .  S
C1303      H1311   1.088       .  S
C1303      C1304   1.344       .  D
C1304      H1312   1.085       .  S
C1305      H1313   1.088       .  S
C1305      C1306   1.343       .  D
C1306      H1314   1.085       .  S
C1315      C1323   1.475       .  S
C1315      C1316   1.400       .  A
C1315      C1320   1.404       .  A
C1316      C1317   1.395       .  A
C1316      H1325   1.083       .  S
C1317      C1318   1.409       .  A
C1317      H1326   1.079       .  S
C1318      C1321   1.484       .  S
C1318      C1319   1.404       .  A
C1319      C1320   1.395       .  A
C1319      H1327   1.083       .  S
C1320      H1328   1.083       .  S
C1321      H1329   1.088       .  S
C1321      C1322   1.345       .  D
C1322      H1330   1.082       .  S
C1323      H1331   1.087       .  S
C1323      C1324   1.340       .  D
C1324      H1332   1.086       .  S
C1333      C1341   1.491       .  S
C1333      C1334   1.403       .  A
C1333      C1338   1.408       .  A
C1334      C1335   1.397       .  A
C1334      H1343   1.084       .  S
C1335      C1336   1.409       .  A
C1335      H1344   1.079       .  S
C1336      C1339   1.498       .  S
C1336      C1337   1.408       .  A
C1337      C1338   1.405       .  A
C1337      H1345   1.084       .  S
C1338      H1346   1.081       .  S
C1339      H1347   1.087       .  S
C1339      C1340   1.351       .  D
C1340      H1348   1.083       .  S
C1341      H1349   1.087       .  S
C1341      C1342   1.349       .  D
C1342      H1350   1.085       .  S
C1351      C1359   1.484       .  S
C1351      C1352   1.402       .  A
C1351      C1356   1.409       .  A
C1352      C1353   1.395       .  A
C1352      H1361   1.083       .  S
C1353      C1354   1.406       .  A
C1353      H1362   1.083       .  S
C1354      C1357   1.485       .  S
C1354      C1355   1.403       .  A
C1355      C1356   1.400       .  A
C1355      H1363   1.083       .  S
C1356      H1364   1.082       .  S
C1357      H1365   1.087       .  S
C1357      C1358   1.345       .  D
C1358      H1366   1.085       .  S
C1359      H1367   1.087       .  S
C1359      C1360   1.345       .  D
C1360      H1368   1.084       .  S
