geometry optimzed in LAMMPS
_audit_creation_date              2020-11-30 
_audit_creation_method            'lammps2cif' 
_symmetry_space_group_name_H-M    'P1' 
_symmetry_Int_Tables_number       1 
_symmetry_cell_setting            triclinic 
loop_ 
_symmetry_equiv_pos_as_xyz 
  x,y,z 
_cell_length_a                    32.09862451 
_cell_length_b                    32.098423744900984 
_cell_length_c                    46.01207524257463 
_cell_angle_alpha                 89.84390928603376 
_cell_angle_beta                  90.55663580845993 
_cell_angle_gamma                 120.0073512335894 
loop_ 
_atom_site_label 
_atom_site_type_symbol 
_atom_site_fract_x 
_atom_site_fract_y 
_atom_site_fract_z 
_atom_site_charge 
O1          O  0.20686374  0.78937517  0.04122695    -0.85600
O2          O  0.25985188  0.75301179  0.06771138    -0.82600
C3          C  0.30054030  0.78959028  0.07325323     0.97900
O4          O  0.30309643  0.82192433  0.08969927    -0.82700
O5          O  0.27851850  0.87263377  0.12679769    -0.85300
C6          C  0.26806264  0.89942177  0.11191141     1.02400
O7          O  0.23235948  0.88152195  0.09486752    -0.78100
O8          O  0.16041690  0.81539769  0.05878071    -0.78300
C9          C  0.18119334  0.80843742  0.03742501     1.02400
O10         O  0.12224094  0.72213699  0.07129198    -0.85600
O11         O  0.17728373  0.69292075  0.10232952    -0.82600
C12         C  0.21055516  0.69478094  0.11799365     0.97900
O13         O  0.24782251  0.73515236  0.12336097    -0.82700
O14         O  0.21760500  0.78471156  0.15678635    -0.85300
C15         C  0.19922933  0.80920697  0.16493169     1.02400
O16         O  0.18455295  0.82845769  0.14628624    -0.78100
O17         O  0.11483651  0.75746846  0.10989295    -0.78200
C18         C  0.09597585  0.72590984  0.09027322     1.02300
Cr19       Cr  0.19272101  0.74283729  0.07258605     1.93700
Cr20       Cr  0.25807229  0.80259574  0.12237397     1.93200
Cr21       Cr  0.17533797  0.81826390  0.10226520     1.39100
O22         O  0.20864881  0.78807728  0.09915247    -1.23300
O23         O  0.22155584  0.78345297  0.29766398    -0.85600
O24         O  0.26880451  0.75080881  0.33260561    -0.82600
C25         C  0.30929503  0.78642486  0.33977781     0.97900
O26         O  0.31119136  0.81929676  0.35573862    -0.82700
O27         O  0.28003682  0.87420211  0.38517814    -0.85300
C28         C  0.27756660  0.90096224  0.36591832     1.02400
O29         O  0.24797636  0.88342944  0.34520087    -0.78100
O30         O  0.17842148  0.81699679  0.30787218    -0.78300
C31         C  0.20052599  0.80580907  0.28960295     1.02400
O32         O  0.13216134  0.72130628  0.32640821    -0.85600
O33         O  0.18148618  0.69402598  0.36419487    -0.82600
C34         C  0.21266837  0.69707864  0.38222981     0.97900
O35         O  0.24775221  0.73774765  0.38887361    -0.82700
O36         O  0.20968064  0.78899487  0.41332553    -0.85300
C37         C  0.18992161  0.81412153  0.41624493     1.02400
O38         O  0.18669789  0.83755852  0.39488736    -0.78100
O39         O  0.12235043  0.76733082  0.35760176    -0.78200
C40         C  0.10500069  0.73114642  0.34110371     1.02300
Cr41       Cr  0.20187970  0.74113385  0.33198987     1.93700
Cr42       Cr  0.25882207  0.80412167  0.38363865     1.93200
Cr43       Cr  0.18627660  0.82380287  0.35165653     1.39100
O44         O  0.21553958  0.78960488  0.35565123    -1.23300
O45         O  0.20893373  0.42781622  0.12672181    -0.85600
O46         O  0.24732410  0.51748563  0.15212608    -0.82600
C47         C  0.21178689  0.52305110  0.15721183     0.97900
O48         O  0.17931016  0.49431353  0.17404465    -0.82700
O49         O  0.12805851  0.41754887  0.21162162    -0.85300
C50         C  0.10119375  0.37959888  0.19738873     1.02400
O51         O  0.11853894  0.36117538  0.18077273    -0.78100
O52         O  0.18419770  0.35573867  0.14481168    -0.78300
C53         C  0.18925462  0.38294847  0.12338082     1.02400
O54         O  0.27712327  0.41112430  0.15683395    -0.85600
O55         O  0.30719505  0.49551511  0.18746317    -0.82600
C56         C  0.30546315  0.52659966  0.20328850     0.97900
O57         O  0.26536448  0.52388010  0.20847753    -0.82700
O58         O  0.21479499  0.44452728  0.24270359    -0.85300
C59         C  0.19219937  0.40117886  0.25043169     1.02400
O60         O  0.17365722  0.36763906  0.23169396    -0.78100
O61         O  0.24378698  0.36946819  0.19595315    -0.78200
C62         C  0.27451594  0.38187695  0.17614957     1.02300
Cr63       Cr  0.25664497  0.46065983  0.15781693     1.93700
Cr64       Cr  0.19783160  0.46726461  0.20733514     1.93200
Cr65       Cr  0.18249672  0.36841314  0.18806559     1.39100
O66         O  0.21208267  0.43193672  0.18456267    -1.23300
O67         O  0.21320443  0.44010856  0.38216824    -0.85600
O68         O  0.24696029  0.52087993  0.41530407    -0.82600
C69         C  0.21002925  0.52405639  0.42070765     0.97900
O70         O  0.17727520  0.49315893  0.43656592    -0.82700
O71         O  0.12397762  0.40971965  0.46843256    -0.85300
C72         C  0.09697058  0.37865294  0.44997177     1.02400
O73         O  0.11457288  0.36539325  0.43014332    -0.78100
O74         O  0.18181670  0.36373614  0.39321671    -0.78300
C75         C  0.19187536  0.39664713  0.37459069     1.02400
O76         O  0.27643725  0.41410621  0.41086090    -0.85600
O77         O  0.30433283  0.49183425  0.44814106    -0.82600
C78         C  0.30128894  0.52087478  0.46519107     0.97900
O79         O  0.26046433  0.51544382  0.47111924    -0.82700
O80         O  0.20919710  0.42772194  0.49809336    -0.85300
C81         C  0.18411884  0.38299176  0.50189821     1.02400
O82         O  0.16320743  0.35476743  0.48057044    -0.78100
O83         O  0.23374312  0.36057752  0.44377073    -0.78200
C84         C  0.26830756  0.37812193  0.42624425     1.02300
Cr85       Cr  0.25664783  0.46387584  0.41598140     1.93700
Cr86       Cr  0.19383244  0.45921273  0.46649859     1.93200
Cr87       Cr  0.17581795  0.36590441  0.43712616     1.39100
O88         O  0.20887364  0.42947262  0.43993537    -1.23300
O89         O  0.56217594  0.78029951  0.46630493    -0.85600
O90         O  0.47820359  0.73343972  0.49605882    -0.82600
C91         C  0.47426780  0.69330010  0.50275086     0.97900
O92         O  0.50637607  0.69274465  0.02065359    -0.82700
O93         O  0.58715178  0.72232630  0.05508382    -0.85300
C94         C  0.61766162  0.72492200  0.03688833     1.02400
O95         O  0.63420364  0.75795228  0.01823925    -0.78100
O96         O  0.63750607  0.82590387  0.47976526    -0.78300
C97         C  0.60625326  0.80119076  0.46048687     1.02400
O98         O  0.58588717  0.86988006  0.49311437    -0.85600
O99         O  0.50678792  0.82130398  0.02815034    -0.82600
C100        C  0.47636024  0.78931628  0.04468356     0.97900
O101        O  0.48162173  0.75418707  0.05214124    -0.82700
O102        O  0.56707896  0.79079874  0.08197345    -0.85300
C103        C  0.61139195  0.81137907  0.08770275     1.02400
O104        O  0.64137374  0.81728872  0.06795513    -0.78100
O105        O  0.63848645  0.88204291  0.02896886    -0.78200
C106        C  0.62237119  0.89888414  0.01001890     1.02300
Cr107      Cr  0.53536490  0.80028495  0.49772978     1.93700
Cr108      Cr  0.53813639  0.74348087  0.05055751     1.93200
Cr109      Cr  0.63364158  0.81866838  0.02385680     1.39100
O110        O  0.56989812  0.78815227  0.02428395    -1.23300
O111        O  0.56554188  0.79061572  0.21620578    -0.85600
O112        O  0.48113695  0.73661827  0.24495823    -0.82600
C113        C  0.47659647  0.69527254  0.24705015     0.97900
O114        O  0.50616131  0.68958804  0.26236789    -0.82700
O115        O  0.58530540  0.71056961  0.29738691    -0.85300
C116        C  0.62090557  0.72055425  0.28148929     1.02400
O117        O  0.63793646  0.75680926  0.26513478    -0.78100
O118        O  0.64107719  0.82984028  0.23110691    -0.78300
C119        C  0.60983439  0.81350811  0.21072956     1.02400
O120        O  0.58753434  0.87222426  0.25067908    -0.85600
O121        O  0.50768802  0.81525131  0.28438969    -0.82600
C122        C  0.47705522  0.78020042  0.29905051     0.97900
O123        O  0.48033302  0.74262558  0.30143407    -0.82700
O124        O  0.56443423  0.77108768  0.33141721    -0.85300
C125        C  0.60863872  0.79223200  0.33767867     1.02400
O126        O  0.64023860  0.80660694  0.31788739    -0.78100
O127        O  0.63958948  0.87778432  0.28370692    -0.78200
C128        C  0.62322735  0.89742894  0.26697007     1.02300
Cr129      Cr  0.53819984  0.80232093  0.25101236     1.93700
Cr130      Cr  0.53690502  0.73256384  0.29625347     1.93200
Cr131      Cr  0.63442897  0.81511414  0.27444022     1.39100
O132        O  0.57029031  0.78356994  0.27393220    -1.23300
O133        O  0.77688258  0.20309846  0.16937820    -0.85600
O134        O  0.72975768  0.24397223  0.19684362    -0.82600
C135        C  0.68994207  0.20921183  0.20504504     0.97900
O136        O  0.68894185  0.17921527  0.22304816    -0.82700
O137        O  0.71996917  0.13107693  0.25910168    -0.85300
C138        C  0.72695251  0.10208708  0.24402242     1.02400
O139        O  0.75885126  0.11767999  0.22474502    -0.78100
O140        O  0.82684403  0.18011568  0.18522659    -0.78300
C141        C  0.80389889  0.18602780  0.16448967     1.02400
O142        O  0.86639043  0.27402451  0.19483859    -0.85600
O143        O  0.81713664  0.30807287  0.22629608    -0.82600
C144        C  0.78823727  0.30846487  0.24446324     0.97900
O145        O  0.75204717  0.26938476  0.25269749    -0.82700
O146        O  0.78794645  0.22275997  0.28425482    -0.85300
C147        C  0.80807293  0.19939719  0.29167917     1.02400
O148        O  0.81553916  0.17483630  0.27303784    -0.78100
O149        O  0.87910906  0.24188048  0.23339078    -0.78200
C150        C  0.89523150  0.27221636  0.21302991     1.02300
Cr151      Cr  0.79658699  0.25390261  0.19885139     1.93700
Cr152      Cr  0.74042058  0.20119550  0.25278753     1.93200
Cr153      Cr  0.81756432  0.18089378  0.22893157     1.39100
O154        O  0.78480821  0.21190426  0.22689926    -1.23300
O155        O  0.78624033  0.21956318  0.03739920    -0.85600
O156        O  0.75033152  0.27094368  0.00927712    -0.82600
C157        C  0.78652626  0.31059427  0.00191953     0.97900
O158        O  0.81606364  0.31076347  0.48426741    -0.82700
O159        O  0.86426525  0.27954016  0.45005214    -0.85300
C160        C  0.89160421  0.27270745  0.46697362     1.02400
O161        O  0.87399377  0.23897550  0.48522548    -0.78100
O162        O  0.81017481  0.17046959  0.02178788    -0.78300
C163        C  0.80537128  0.19420871  0.04222973     1.02400
O164        O  0.71724160  0.13235267  0.00898891    -0.85600
O165        O  0.68593366  0.18508622  0.47671018    -0.82600
C166        C  0.68818983  0.21658112  0.45940118     0.97900
O167        O  0.72860362  0.25221257  0.45280745    -0.82700
O168        O  0.77455314  0.21516520  0.42192964    -0.85300
C169        C  0.80074144  0.19810775  0.41507799     1.02400
O170        O  0.82127516  0.18664980  0.43464510    -0.78100
O171        O  0.74985758  0.12046169  0.47135525    -0.78200
C172        C  0.71878373  0.10358389  0.49109692     1.02300
Cr173      Cr  0.73836333  0.20290340  0.00614991     1.93700
Cr174      Cr  0.79485250  0.26088409  0.45414383     1.93200
Cr175      Cr  0.81087158  0.18098093  0.47834674     1.39100
O176        O  0.78106940  0.21480090  0.47962739    -1.23300
O177        O  0.77816205  0.56474939  0.00340625    -0.85600
O178        O  0.74851236  0.48140351  0.03370027    -0.82600
C179        C  0.78598232  0.48001992  0.04135225     0.97900
O180        O  0.81550354  0.51015147  0.05927384    -0.82700
O181        O  0.86166068  0.59139865  0.09382179    -0.85300
C182        C  0.88889803  0.62324585  0.07594867     1.02400
O183        O  0.87122029  0.63736751  0.05632220    -0.78100
O184        O  0.80462771  0.63906197  0.01779806    -0.78300
C185        C  0.79602933  0.60867123  0.99765384     1.02400
O186        O  0.70932114  0.58233335  0.03163796    -0.85600
O187        O  0.68362471  0.50249601  0.06565131    -0.82600
C188        C  0.68702392  0.47388613  0.08290624     0.97900
O189        O  0.72787611  0.47949623  0.08940966    -0.82700
O190        O  0.77024590  0.56450860  0.11887547    -0.85300
C191        C  0.79160546  0.60854338  0.12504518     1.02400
O192        O  0.81651452  0.63954558  0.10589062    -0.78100
O193        O  0.74715948  0.63242051  0.06752393    -0.78200
C194        C  0.71370146  0.61493868  0.04893954     1.02300
Cr195      Cr  0.73319289  0.53521796  0.03556620     1.93700
Cr196      Cr  0.79291117  0.53884473  0.08837959     1.93200
Cr197      Cr  0.80794333  0.63254126  0.06178274     1.39100
O198        O  0.77823790  0.56896525  0.06165677    -1.23300
O199        O  0.78460080  0.56536826  0.36910883    -0.85600
O200        O  0.73722287  0.47976001  0.33926676    -0.82600
C201        C  0.69640536  0.47470677  0.33297498     0.97900
O202        O  0.69332551  0.50382723  0.31605007    -0.82700
O203        O  0.71761995  0.58396616  0.28318928    -0.85300
C204        C  0.72419133  0.61783654  0.30012966     1.02400
O205        O  0.75716832  0.63330565  0.31906401    -0.78100
O206        O  0.82957278  0.64036494  0.35530056    -0.78300
C207        C  0.80674004  0.60962565  0.37491615     1.02400
O208        O  0.87312893  0.59016152  0.34033264    -0.85600
O209        O  0.82291860  0.50824712  0.30666075    -0.82600
C210        C  0.79249525  0.47900343  0.28871989     0.97900
O211        O  0.75546240  0.48181074  0.28203356    -0.82700
O212        O  0.78582934  0.56700018  0.25339300    -0.85300
C213        C  0.80066229  0.61047310  0.24766008     1.02400
O214        O  0.81106048  0.64075600  0.26806437    -0.78100
O215        O  0.88031472  0.63873471  0.30457251    -0.78200
C216        C  0.89915152  0.62472210  0.32352207     1.02300
Cr217      Cr  0.80342444  0.53842352  0.33692549     1.93700
Cr218      Cr  0.74153777  0.53655632  0.28563940     1.93200
Cr219      Cr  0.81749846  0.63336169  0.31165849     1.39100
O220        O  0.78771702  0.56951558  0.31127881    -1.23300
O221        O  0.43366040  0.22104264  0.09117833    -0.85600
O222        O  0.51521341  0.26718870  0.12323343    -0.82600
C223        C  0.51874734  0.30753181  0.12851932     0.97900
O224        O  0.48937384  0.31011662  0.14536859    -0.82700
O225        O  0.40798164  0.28116135  0.17894605    -0.85300
C226        C  0.37656284  0.27782189  0.16087838     1.02400
O227        O  0.36180729  0.24643331  0.14112802    -0.78100
O228        O  0.35746838  0.17803918  0.10283718    -0.72300
C229        C  0.38993851  0.20122019  0.08420438     1.02400
O230        O  0.40804696  0.13164182  0.11873438    -0.85600
O231        O  0.48702865  0.18072929  0.15539869    -0.82600
C232        C  0.51728218  0.21280565  0.17217425     0.97900
O233        O  0.51288177  0.24877314  0.17844656    -0.82700
O234        O  0.42690237  0.21296628  0.20665706    -0.85300
C235        C  0.38236737  0.19271910  0.21116152     1.02400
O236        O  0.35300830  0.18649513  0.19059839    -0.78100
O237        O  0.35531766  0.12123703  0.15203899    -0.78200
C238        C  0.37220995  0.10411789  0.13405418     1.02300
Cr239      Cr  0.45821865  0.20088466  0.12409261     1.93700
Cr240      Cr  0.45682380  0.25986544  0.17533198     1.93200
Cr241      Cr  0.36167968  0.18525888  0.14683806     1.39100
O242        O  0.42530846  0.21495504  0.14880824    -1.23300
O243        O  0.42735119  0.21646342  0.33799201    -0.85600
O244        O  0.51419158  0.26817032  0.36673525    -0.82600
C245        C  0.51863856  0.30918368  0.37053277     0.97900
O246        O  0.48836505  0.31305859  0.38574424    -0.82700
O247        O  0.41004740  0.28900872  0.42103872    -0.85300
C248        C  0.37184037  0.27657470  0.40669291     1.02400
O249        O  0.35393131  0.24010762  0.39041905    -0.78100
O250        O  0.35336996  0.17132543  0.35400269    -0.78300
C251        C  0.38276357  0.19131645  0.33325414     1.02400
O252        O  0.40788875  0.13239650  0.36817295    -0.85600
O253        O  0.48881569  0.18678193  0.40278442    -0.82600
C254        C  0.51931694  0.22070467  0.41848116     0.97900
O255        O  0.51576285  0.25783242  0.42267155    -0.82700
O256        O  0.43477949  0.22960597  0.45407772    -0.85300
C257        C  0.39103234  0.20670469  0.46075705     1.02400
O258        O  0.35836153  0.19062168  0.44127540    -0.78100
O259        O  0.36295819  0.12396136  0.40529615    -0.78200
C260        C  0.37549265  0.10548820  0.38563845     1.02300
Cr261      Cr  0.45704601  0.20219312  0.37098028     1.93700
Cr262      Cr  0.45946991  0.26852848  0.41893715     1.93200
Cr263      Cr  0.36214785  0.18409387  0.39761475     1.39100
O264        O  0.42583486  0.21840864  0.39589603    -1.23300
C265        C  0.36637670  0.18008650  0.24146283    -0.00400
C266        C  0.35090653  0.20785392  0.25660563    -0.12300
C267        C  0.35112593  0.20849389  0.28717311     0.01800
C268        C  0.36693496  0.18103583  0.30269429    -0.00500
C269        C  0.37799618  0.14999724  0.28752741    -0.12200
C270        C  0.37772152  0.14926012  0.25714051     0.01700
H271        H  0.34255834  0.23202243  0.24466294     0.14700
H272        H  0.39010825  0.12869063  0.29946354     0.14700
C273        C  0.39188625  0.11869940  0.24235627     0.36400
C274        C  0.33861092  0.24006749  0.30221371     0.36300
N275        N  0.40295227  0.09416162  0.23031714    -0.44000
N276        N  0.32843159  0.26507426  0.31450980    -0.44000
C277        C  0.37854263  0.20359920  0.05328057    -0.00400
C278        C  0.35192677  0.16069081  0.03739704    -0.12300
C279        C  0.35346015  0.16084778  0.00681422     0.01800
C280        C  0.37969467  0.20392646  0.49204492    -0.00500
C281        C  0.40342380  0.24776752  0.00783613    -0.12200
C282        C  0.40341566  0.24756411  0.03814536     0.01700
H283        H  0.33395362  0.12665703  0.04886666     0.14700
H284        H  0.42578674  0.28062900  0.49656485     0.14700
C285        C  0.43256118  0.29272168  0.05315197     0.36400
C286        C  0.32807477  0.11493089  0.49202207     0.36300
N287        N  0.45643724  0.32889160  0.06502724    -0.44000
N288        N  0.31001119  0.07796162  0.48045211    -0.44000
C289        C  0.56272338  0.35228345  0.35991371    -0.00400
C290        C  0.60333577  0.34764579  0.35474692    -0.12300
C291        C  0.64745833  0.38716418  0.34715124     0.01800
C292        C  0.65160740  0.43277162  0.34363282    -0.00500
C293        C  0.61087710  0.43748672  0.34820588    -0.12200
C294        C  0.56685548  0.39799319  0.35662735     0.01700
H295        H  0.60115314  0.31302782  0.35742367     0.14700
H296        H  0.61350134  0.47225517  0.34531502     0.14700
C297        C  0.52661734  0.40544801  0.36117111     0.36400
C298        C  0.68725372  0.37907796  0.34242499     0.36300
N299        N  0.49451580  0.41167162  0.36482392    -0.44000
N300        N  0.71874557  0.37190819  0.33886028    -0.44000
C301        C  0.79904628  0.62171797  0.46651438    -0.00400
C302        C  0.84448222  0.64449375  0.45339689    -0.12300
C303        C  0.84843066  0.64557415  0.42288170     0.01800
C304        C  0.80639565  0.62381903  0.40536329    -0.00500
C305        C  0.76148290  0.60517360  0.41853786    -0.12200
C306        C  0.75742442  0.60365913  0.44873612     0.01700
H307        H  0.87652220  0.65800960  0.46686261     0.14700
H308        H  0.72912236  0.58837187  0.40517005     0.14700
C309        C  0.70962575  0.57960267  0.46077347     0.36400
C310        C  0.89545805  0.66467265  0.41020998     0.36300
N311        N  0.67094147  0.55981881  0.46984227    -0.44000
N312        N  0.93314354  0.67988637  0.40004624    -0.44000
C313        C  0.79020707  0.62150508  0.15579108    -0.00400
C314        C  0.83283534  0.65561928  0.16998803    -0.12300
C315        C  0.83660392  0.65623905  0.20058221     0.01800
C316        C  0.79729910  0.62235245  0.21698234    -0.00500
C317        C  0.75321298  0.59295376  0.20289863    -0.12200
C318        C  0.74922531  0.59220478  0.17272530     0.01700
H319        H  0.86442792  0.67865339  0.15725589     0.14700
H320        H  0.72227123  0.56790963  0.21554868     0.14700
C321        C  0.70346663  0.55796635  0.15977298     0.36400
C322        C  0.88192506  0.68878787  0.21440497     0.36300
N323        N  0.66684766  0.53018775  0.14958537    -0.44000
N324        N  0.91825383  0.71503536  0.22551411    -0.44000
C325        C  0.64336146  0.43164535  0.09410931    -0.00400
C326        C  0.60337318  0.43566868  0.10215014    -0.12300
C327        C  0.56195437  0.39595718  0.11341070     0.01800
C328        C  0.56025845  0.35126802  0.11646047    -0.00500
C329        C  0.59999640  0.34746349  0.10774718    -0.12200
C330        C  0.64090022  0.38666850  0.09654220     0.01700
H331        H  0.60466894  0.46993744  0.09988703     0.14700
H332        H  0.59938068  0.31346279  0.10970388     0.14700
C333        C  0.67855773  0.37847214  0.08631657     0.36400
C334        C  0.52156538  0.40178432  0.12085097     0.36300
N335        N  0.70787203  0.37065904  0.07805877    -0.44000
N336        N  0.48903791  0.40626635  0.12672276    -0.44000
C337        C  0.79085938  0.35631070  0.01130667    -0.00400
C338        C  0.80524505  0.37249246  0.03981663    -0.12300
C339        C  0.80788037  0.41516378  0.04942381     0.01800
C340        C  0.79276067  0.44039378  0.03077451    -0.00500
C341        C  0.77998388  0.42485248  0.00196361    -0.12200
C342        C  0.78082017  0.38402998  0.49159497     0.01700
H343        H  0.81452070  0.35183955  0.05452871     0.14700
H344        H  0.76991244  0.44462765  0.48683497     0.14700
C345        C  0.77234675  0.37240712  0.46102754     0.36400
C346        C  0.82387217  0.43068415  0.07890033     0.36300
N347        N  0.76662844  0.36415392  0.43637480    -0.44000
N348        N  0.83698244  0.44311473  0.10248382    -0.44000
C349        C  0.64388165  0.21521418  0.44866256    -0.00400
C350        C  0.64681483  0.25932820  0.44236133    -0.12300
C351        C  0.60675734  0.26197706  0.43330379     0.01800
C352        C  0.56188871  0.21933260  0.42980756    -0.00500
C353        C  0.55865094  0.17482419  0.43586526    -0.12200
C354        C  0.59902623  0.17244056  0.44557083     0.01700
H355        H  0.68064365  0.29248694  0.44517660     0.14700
H356        H  0.52443379  0.14183974  0.43319017     0.14700
C357        C  0.59353606  0.12580388  0.45163476     0.36400
C358        C  0.61358750  0.30927652  0.42750130     0.36300
N359        N  0.58909607  0.08842693  0.45658436    -0.44000
N360        N  0.61945769  0.34739359  0.42325942    -0.44000
C361        C  0.81247477  0.19909681  0.38410968    -0.00400
C362        C  0.80172753  0.15670337  0.36933230    -0.12300
C363        C  0.80425234  0.15632445  0.33881995     0.01800
C364        C  0.81883195  0.19924006  0.32298989    -0.00500
C365        C  0.83388577  0.24225117  0.33825371    -0.12200
C366        C  0.83030567  0.24249764  0.36838455     0.01700
H367        H  0.78802341  0.12334811  0.38135952     0.14700
H368        H  0.84524115  0.27543401  0.32634785     0.14700
C369        C  0.84279120  0.28759040  0.38242025     0.36400
C370        C  0.78695549  0.11073223  0.32438511     0.36300
N371        N  0.85249800  0.32375186  0.39343957    -0.44000
N372        N  0.77275512  0.07377991  0.31320381    -0.44000
C373        C  0.81801145  0.19005933  0.07266516    -0.00400
C374        C  0.79477910  0.14477019  0.08635889    -0.12300
C375        C  0.79292545  0.14140547  0.11693615     0.01800
C376        C  0.81574797  0.18368219  0.13385599    -0.00500
C377        C  0.84335351  0.22810996  0.12004954    -0.12200
C378        C  0.84414450  0.23171613  0.08979692     0.01700
H379        H  0.77452982  0.11275891  0.07342895     0.14700
H380        H  0.86073466  0.26035992  0.13290202     0.14700
C381        C  0.86888988  0.27910959  0.07698498     0.36400
C382        C  0.76428941  0.09492161  0.13026855     0.36300
N383        N  0.88853303  0.31713107  0.06680562    -0.44000
N384        N  0.74126299  0.05753654  0.14083845    -0.44000
C385        C  0.79464913  0.35500795  0.25469896    -0.00400
C386        C  0.80969400  0.36990770  0.28339469    -0.12300
C387        C  0.81288706  0.41230798  0.29426381     0.01800
C388        C  0.79798957  0.43899206  0.27675457    -0.00500
C389        C  0.78461821  0.42480663  0.24772123    -0.12200
C390        C  0.78431639  0.38410064  0.23640004     0.01700
H391        H  0.81883956  0.34831793  0.29733650     0.14700
H392        H  0.77439282  0.44561300  0.23383569     0.14700
C393        C  0.77293379  0.37271869  0.20598802     0.36400
C394        C  0.82978756  0.42641111  0.32377401     0.36300
N395        N  0.76447831  0.36414036  0.18150619    -0.44000
N396        N  0.84357852  0.43780359  0.34737356    -0.44000
C397        C  0.64501566  0.20804489  0.19637371    -0.00400
C398        C  0.64513726  0.25169704  0.19670713    -0.12300
C399        C  0.60383126  0.25382438  0.18992935     0.01800
C400        C  0.56069760  0.21125852  0.18213167    -0.00500
C401        C  0.56056175  0.16729196  0.18191954    -0.12200
C402        C  0.60212634  0.16532583  0.18930343     0.01700
H403        H  0.67773919  0.28450379  0.20279554     0.14700
H404        H  0.52798428  0.13438548  0.17588183     0.14700
C405        C  0.60042658  0.11953822  0.18857625     0.36400
C406        C  0.60786425  0.30074636  0.19046789     0.36300
N407        N  0.59932786  0.08295462  0.18803856    -0.44000
N408        N  0.61126809  0.33838016  0.19101040    -0.44000
C409        C  0.64583632  0.69240865  0.28438395    -0.00400
C410        C  0.69618938  0.71781554  0.28666436    -0.12300
C411        C  0.72176336  0.69403525  0.29266780     0.01800
C412        C  0.69710164  0.64344739  0.29551782    -0.00500
C413        C  0.64679384  0.61765361  0.29244864    -0.12200
C414        C  0.62096383  0.64180726  0.28751359     0.01700
H415        H  0.71559870  0.75668583  0.28472645     0.14700
H416        H  0.62768449  0.57880443  0.29438798     0.14700
C417        C  0.56917702  0.61392554  0.28520267     0.36400
C418        C  0.77353591  0.72241486  0.29541680     0.36300
N419        N  0.52765655  0.59167955  0.28336700    -0.44000
N420        N  0.81497026  0.74480892  0.29786326    -0.44000
C421        C  0.70026949  0.04980759  0.25051604    -0.00400
C422        C  0.65072579  0.02653477  0.25621285    -0.12300
C423        C  0.62477828  0.97694075  0.26209776     0.01800
C424        C  0.64896630  0.95037990  0.26381688    -0.00500
C425        C  0.69865597  0.97398405  0.25904166    -0.12200
C426        C  0.72418428  0.02287386  0.25191679     0.01700
H427        H  0.63204178  0.04683668  0.25526487     0.14700
H428        H  0.71737247  0.95367114  0.25979625     0.14700
C429        C  0.77525245  0.04471857  0.24691719     0.36400
C430        C  0.57345056  0.95406165  0.26621644     0.36300
N431        N  0.81617693  0.06229509  0.24298533    -0.44000
N432        N  0.53225944  0.93557352  0.26934676    -0.44000
C433        C  0.63649627  0.69119222  0.03887657    -0.00400
C434        C  0.63962970  0.67363638  0.06632801    -0.12300
C435        C  0.66307090  0.64709452  0.07000362     0.01800
C436        C  0.68242314  0.63616732  0.04575310    -0.00500
C437        C  0.67623835  0.65060017  0.01805080    -0.12200
C438        C  0.65391416  0.67820268  0.01441063     0.01700
H439        H  0.62561183  0.68246438  0.08525358     0.14700
H440        H  0.69127663  0.64255542  0.99929066     0.14700
C441        C  0.64950040  0.69336376  0.48498180     0.36400
C442        C  0.66734910  0.63210797  0.09892687     0.36300
N443        N  0.64746949  0.70540136  0.46154759    -0.44000
N444        N  0.67073505  0.62042449  0.12221814    -0.44000
C445        C  0.64563118  0.95166822  0.00577723    -0.00400
C446        C  0.64725710  0.96847152  0.47736588    -0.12300
C447        C  0.67162299  0.01808647  0.47191800     0.01800
C448        C  0.69008347  0.05088966  0.49533942    -0.00500
C449        C  0.68796123  0.03416323  0.02370818    -0.12200
C450        C  0.66582316  0.98466832  0.02906292     0.01700
H451        H  0.63324158  0.94366151  0.45923452     0.14700
H452        H  0.70324005  0.05902455  0.04168999     0.14700
C453        C  0.66509952  0.96904952  0.05862238     0.36400
C454        C  0.67751108  0.03424346  0.44212612     0.36300
N455        N  0.66516292  0.95672033  0.08227678    -0.44000
N456        N  0.68258033  0.04710865  0.41823020    -0.44000
C457        C  0.61938719  0.79762785  0.43018566    -0.00400
C458        C  0.65029832  0.83944507  0.41447917    -0.12300
C459        C  0.65137364  0.83838971  0.38382733     0.01800
C460        C  0.62120114  0.79502399  0.36889649    -0.00500
C461        C  0.59493017  0.75264862  0.38487820    -0.12200
C462        C  0.59361385  0.75355998  0.41508015     0.01700
H463        H  0.67040298  0.87347187  0.42584844     0.14700
H464        H  0.57261746  0.71891067  0.37354338     0.14700
C465        C  0.56284937  0.70890928  0.42985513     0.36400
C466        C  0.68040754  0.88255639  0.36821833     0.36300
N467        N  0.53809477  0.67295935  0.44147927    -0.44000
N468        N  0.70387791  0.91794387  0.35568409    -0.44000
C469        C  0.62593585  0.82515288  0.11844672    -0.00400
C470        C  0.60426934  0.84746488  0.13316205    -0.12300
C471        C  0.60317191  0.84788587  0.16348026     0.01800
C472        C  0.62330384  0.82491722  0.17984666    -0.00500
C473        C  0.64932451  0.80682551  0.16541341    -0.12200
C474        C  0.65113335  0.80720633  0.13477169     0.01700
H475        H  0.58543525  0.86199765  0.12085905     0.14700
H476        H  0.66535459  0.78959370  0.17785122     0.14700
C477        C  0.67583876  0.78582570  0.12061783     0.36400
C478        C  0.57895343  0.87010715  0.17740868     0.36300
N479        N  0.69617213  0.76922214  0.10926627    -0.44000
N480        N  0.55970677  0.88792037  0.18869378    -0.44000
C481        C  0.94446043  0.30236712  0.46362470    -0.00400
C482        C  0.96283828  0.32323837  0.43634241    -0.12300
C483        C  0.01241375  0.34804789  0.43118710     0.01800
C484        C  0.04458428  0.35423458  0.45394763    -0.00500
C485        C  0.02653792  0.33483380  0.48137086    -0.12200
C486        C  0.97707319  0.30816895  0.48625820     0.01700
H487        H  0.93838077  0.31857864  0.41857861     0.14700
H488        H  0.05132514  0.33882848  0.49880836     0.14700
C489        C  0.96221448  0.29101071  0.01502104     0.36400
C490        C  0.02941466  0.36646797  0.40243507     0.36300
N491        N  0.94967110  0.27382004  0.03770719    -0.44000
N492        N  0.04314178  0.38095589  0.37935718    -0.44000
C493        C  0.29685648  0.35385391  0.42200619    -0.00400
C494        C  0.27481834  0.30433855  0.42784330    -0.12300
C495        C  0.29854992  0.27869098  0.42244832     0.01800
C496        C  0.34551798  0.30260533  0.41116558    -0.00500
C497        C  0.36829565  0.35219061  0.40599860    -0.12200
C498        C  0.34426635  0.37788147  0.41096752     0.01700
H499        H  0.23852451  0.28526965  0.43627849     0.14700
H500        H  0.40479251  0.37076951  0.39787574     0.14700
C501        C  0.36952644  0.42886828  0.40506021     0.36400
C502        C  0.27469626  0.22820962  0.42986086     0.36300
N503        N  0.38975268  0.46971916  0.40025788    -0.44000
N504        N  0.25570365  0.18786296  0.43597097    -0.44000
C505        C  0.34536455  0.56431034  0.47589362    -0.00400
C506        C  0.38872821  0.56369146  0.47875706    -0.12300
C507        C  0.43141547  0.60502234  0.48755626     0.01800
C508        C  0.43146045  0.64846792  0.49255994    -0.00500
C509        C  0.38837116  0.64915253  0.48921151    -0.12200
C510        C  0.34555328  0.60778359  0.48160556     0.01700
H511        H  0.38921513  0.53078272  0.47433995     0.14700
H512        H  0.38774746  0.68208505  0.49338105     0.14700
C513        C  0.30275290  0.61185676  0.47963708     0.36400
C514        C  0.47468000  0.60208909  0.49059067     0.36300
N515        N  0.26860592  0.61537258  0.47844427    -0.44000
N516        N  0.51144148  0.60084040  0.99316245    -0.44000
C517        C  0.04907106  0.35439864  0.20211006    -0.00400
C518        C  0.01924021  0.36020324  0.18219760    -0.12300
C519        C  0.96919736  0.33542351  0.18567819     0.01800
C520        C  0.94817793  0.30329470  0.20940465    -0.00500
C521        C  0.97877726  0.29866875  0.22958536    -0.12200
C522        C  0.02862328  0.32372671  0.22613758     0.01700
H523        H  0.03515361  0.38418815  0.16383477     0.14700
H524        H  0.96379813  0.27458639  0.24796214     0.14700
C525        C  0.05755181  0.31563021  0.24710672     0.36400
C526        C  0.94105923  0.34436641  0.16455477     0.36300
N527        N  0.07948541  0.30790510  0.26419724    -0.44000
N528        N  0.91905619  0.35228260  0.14760380    -0.44000
C529        C  0.30429115  0.35877639  0.17331410    -0.00400
C530        C  0.31562637  0.35101423  0.14515706    -0.12300
C531        C  0.33997124  0.32573374  0.14057587     0.01800
C532        C  0.35429207  0.30818609  0.16451716    -0.00500
C533        C  0.34487748  0.31773330  0.19279302    -0.12200
C534        C  0.31974694  0.34243473  0.19737252     0.01700
H535        H  0.30420100  0.36353737  0.12649889     0.14700
H536        H  0.35592897  0.30462796  0.21137244     0.14700
C537        C  0.31107270  0.35113656  0.22687890     0.36400
C538        C  0.35011680  0.31899332  0.11103080     0.36300
N539        N  0.30428863  0.35819931  0.25054199    -0.44000
N540        N  0.35781586  0.31399371  0.08717286    -0.44000
C541        C  0.18382732  0.39090864  0.28185385    -0.00400
C542        C  0.20313591  0.36594563  0.29652439    -0.12300
C543        C  0.20270498  0.36372687  0.32709508     0.01800
C544        C  0.18191536  0.38606869  0.34321002    -0.00500
C545        C  0.15943348  0.40771794  0.32829041    -0.12200
C546        C  0.16014333  0.41023631  0.29795285     0.01700
H547        H  0.22125375  0.35097717  0.28427156     0.14700
H548        H  0.14336681  0.42489796  0.34048194     0.14700
C549        C  0.13715483  0.43387532  0.28385126     0.36400
C550        C  0.22803129  0.34271863  0.34137163     0.36300
N551        N  0.11853102  0.45268413  0.27267711    -0.44000
N552        N  0.24867006  0.32609784  0.35267060    -0.44000
C553        C  0.17661509  0.36417913  0.09343575    -0.00400
C554        C  0.20984129  0.35664200  0.07798599    -0.12300
C555        C  0.21011068  0.35735952  0.04744612     0.01800
C556        C  0.17636850  0.36508760  0.03212667    -0.00500
C557        C  0.14009054  0.36740818  0.04758685    -0.12200
C558        C  0.13996310  0.36697526  0.07803641     0.01700
H559        H  0.23837112  0.35485481  0.08970344     0.14700
H560        H  0.11432440  0.37388055  0.03596697     0.14700
C561        C  0.10411558  0.37311435  0.09310294     0.36400
C562        C  0.24770994  0.35433825  0.03233258     0.36300
N563        N  0.07527369  0.37779369  0.10520804    -0.44000
N564        N  0.27777436  0.35187435  0.02014085    -0.44000
C565        C  0.35044279  0.56900628  0.21385567    -0.00400
C566        C  0.35060278  0.61251424  0.21697740    -0.12300
C567        C  0.39182004  0.65445301  0.22600709     0.01800
C568        C  0.43405718  0.65312432  0.23366373    -0.00500
C569        C  0.43415007  0.60962448  0.23019108    -0.12200
C570        C  0.39317769  0.56797802  0.21993930     0.01700
H571        H  0.31839254  0.61410343  0.21175407     0.14700
H572        H  0.46628032  0.60802101  0.23561934     0.14700
C573        C  0.39566357  0.52452503  0.21677696     0.36400
C574        C  0.38871619  0.69779921  0.22754932     0.36300
N575        N  0.39775388  0.48976585  0.21414860    -0.44000
N576        N  0.38609300  0.73244313  0.22856137    -0.44000
C577        C  0.30381359  0.95291845  0.37045258    -0.00400
C578        C  0.28528482  0.97148100  0.39077054    -0.12300
C579        C  0.30695036  0.02091150  0.39546962     0.01800
C580        C  0.35066612  0.05256205  0.38143733    -0.00500
C581        C  0.36889330  0.03342067  0.36080563    -0.12200
C582        C  0.34488906  0.98410216  0.35459343     0.01700
H583        H  0.25217543  0.94726963  0.40193135     0.14700
H584        H  0.40110230  0.05710077  0.34876273     0.14700
C585        C  0.36163034  0.96654481  0.33118451     0.36400
C586        C  0.28031727  0.03773513  0.41207458     0.36300
N587        N  0.37440763  0.95256328  0.31203220    -0.44000
N588        N  0.25775491  0.05072723  0.42454090    -0.44000
C589        C  0.05229411  0.70244740  0.33730292    -0.00400
C590        C  0.02672318  0.72713863  0.33458047    -0.12300
C591        C  0.97708916  0.70238662  0.32965457     0.01800
C592        C  0.95183463  0.65165984  0.32780856    -0.00500
C593        C  0.97707737  0.62670531  0.33144456    -0.12200
C594        C  0.02714610  0.65171913  0.33576163     0.01700
H595        H  0.04576138  0.76611930  0.33588250     0.14700
H596        H  0.95773451  0.58770918  0.33058134     0.14700
C597        C  0.05165870  0.62462521  0.33936208     0.36400
C598        C  0.95270696  0.72989948  0.32790539     0.36300
N599        N  0.07137765  0.60296844  0.34222699    -0.44000
N600        N  0.93323775  0.75199624  0.32664208    -0.44000
C601        C  0.20858861  0.56713928  0.41067408    -0.00400
C602        C  0.25255008  0.61026646  0.40851068    -0.12300
C603        C  0.25444132  0.65304959  0.40051275     0.01800
C604        C  0.21143304  0.65317517  0.39343674    -0.00500
C605        C  0.16733179  0.60990609  0.39526856    -0.12200
C606        C  0.16551628  0.56715382  0.40413147     0.01700
H607        H  0.28594623  0.61087375  0.41370259     0.14700
H608        H  0.13415866  0.60948315  0.38980603     0.14700
C609        C  0.11927690  0.52372506  0.40536107     0.36400
C610        C  0.30143180  0.69581479  0.39926748     0.36300
N611        N  0.08210270  0.48900164  0.40633934    -0.44000
N612        N  0.33902723  0.73007586  0.39852637    -0.44000
C613        C  0.43496049  0.78128801  0.31136550    -0.00400
C614        C  0.43987970  0.82523740  0.32060304    -0.12300
C615        C  0.40027821  0.82798036  0.33100239     0.01800
C616        C  0.35385464  0.78657556  0.33065403    -0.00500
C617        C  0.34941074  0.74256158  0.32193485    -0.12200
C618        C  0.38914514  0.73933346  0.31293921     0.01700
H619        H  0.47504689  0.85749643  0.32016730     0.14700
H620        H  0.31455354  0.70992826  0.32247414     0.14700
C621        C  0.38103578  0.69233824  0.30489718     0.36400
C622        C  0.40897391  0.87338567  0.34254903     0.36300
N623        N  0.37408883  0.65441623  0.29878688    -0.44000
N624        N  0.41667536  0.90968031  0.35244552    -0.44000
C625        C  0.29509981  0.95199057  0.11658558    -0.00400
C626        C  0.34561872  0.97680812  0.11705643    -0.12300
C627        C  0.37179558  0.02649818  0.12264817     0.01800
C628        C  0.34716257  0.05157690  0.12897906    -0.00500
C629        C  0.29672053  0.02644118  0.12885353    -0.12200
C630        C  0.27066904  0.97736457  0.12236761     0.01700
H631        H  0.36455956  0.95745339  0.11281014     0.14700
H632        H  0.27746184  0.04545619  0.13327877     0.14700
C633        C  0.21876282  0.95359768  0.12275673     0.36400
C634        C  0.42370971  0.05061429  0.12243208     0.36300
N635        N  0.17718311  0.93451568  0.12300215    -0.44000
N636        N  0.46531640  0.07008294  0.12219127    -0.44000
C637        C  0.94169483  0.64623608  0.07941559    -0.00400
C638        C  0.96189094  0.65788723  0.10749253    -0.12300
C639        C  0.01191119  0.68280813  0.11176558     0.01800
C640        C  0.04279212  0.69613697  0.08756463    -0.00500
C641        C  0.02232164  0.68260355  0.05957250    -0.12200
C642        C  0.97237097  0.65802592  0.05533095     0.01700
H643        H  0.93847124  0.64847111  0.12617881     0.14700
H644        H  0.04547772  0.69222044  0.04074824     0.14700
C645        C  0.95344070  0.64397613  0.02616406     0.36400
C646        C  0.03033825  0.69325068  0.14120169     0.36300
N647        N  0.93813574  0.63233224  0.00285673    -0.44000
N648        N  0.04482640  0.70132195  0.16486018    -0.44000
C649        C  0.17159847  0.81635351  0.00704982    -0.00400
C650        C  0.13747270  0.77597730  0.49055624    -0.12300
C651        C  0.13979169  0.77628543  0.46017245     0.01800
C652        C  0.17419928  0.81795359  0.44567690    -0.00500
C653        C  0.20240024  0.86023498  0.46179569    -0.12200
C654        C  0.20054573  0.85968714  0.49233799     0.01700
H655        H  0.11760613  0.74166261  0.00187353     0.14700
H656        H  0.22924292  0.89233302  0.45078073     0.14700
C657        C  0.23377018  0.90292984  0.00835722     0.36400
C658        C  0.10945701  0.73228717  0.44436455     0.36300
N659        N  0.25963266  0.93752099  0.02112920    -0.44000
N660        N  0.08534535  0.69716817  0.43154888    -0.44000
C661        C  0.20058572  0.81858791  0.19660242    -0.00400
C662        C  0.15873474  0.80791889  0.21186178    -0.12300
C663        C  0.15857618  0.80716546  0.24253729     0.01800
C664        C  0.20067416  0.81659396  0.25816106    -0.00500
C665        C  0.24319500  0.83109739  0.24278617    -0.12200
C666        C  0.24367495  0.83288625  0.21245657     0.01700
H667        H  0.12561505  0.79747093  0.19991141     0.14700
H668        H  0.27603967  0.83970976  0.25454700     0.14700
C669        C  0.28899724  0.84887037  0.19801480     0.36400
C670        C  0.11409686  0.79322773  0.25736061     0.36300
N671        N  0.32530903  0.86188235  0.18645853    -0.44000
N672        N  0.07856554  0.78225493  0.26936366    -0.44000
C673        C  0.20871860  0.64976193  0.12797960    -0.00400
C674        C  0.25257855  0.65129543  0.13318332    -0.12300
C675        C  0.25429121  0.61028417  0.14140372     0.01800
C676        C  0.21112201  0.56611029  0.14571253    -0.00500
C677        C  0.16699840  0.56430502  0.14047578    -0.12200
C678        C  0.16543422  0.60526609  0.13107947     0.01700
H679        H  0.28617254  0.68474313  0.13020519     0.14700
H680        H  0.13363410  0.53066719  0.14343797     0.14700
C681        C  0.11902793  0.60050095  0.12492514     0.36400
C682        C  0.30134200  0.61549357  0.14551041     0.36300
N683        N  0.08191891  0.59667247  0.11969363    -0.44000
N684        N  0.33936207  0.62028263  0.14831878    -0.44000
C685        C  0.34540792  0.79096373  0.06411308    -0.00400
C686        C  0.34608322  0.74766126  0.06437586    -0.12300
C687        C  0.38843540  0.74663504  0.05933719     0.01800
C688        C  0.43171590  0.78976574  0.05289684    -0.00500
C689        C  0.43092810  0.83322974  0.05236180    -0.12200
C690        C  0.38855877  0.83425412  0.05837190     0.01700
H691        H  0.31350905  0.71434906  0.06953168     0.14700
H692        H  0.46356218  0.86657694  0.04744200     0.14700
C693        C  0.39011684  0.88001054  0.05814488     0.36400
C694        C  0.38559360  0.70029852  0.06071553     0.36300
N695        N  0.39114321  0.91657275  0.05810668    -0.44000
N696        N  0.38313912  0.66312192  0.06205056    -0.44000
O697        O  0.20438460  0.78893534  0.54090037    -0.85600
O698        O  0.25772809  0.75285666  0.56712846    -0.82600
C699        C  0.29845710  0.78948871  0.57246596     0.97900
O700        O  0.30114302  0.82194741  0.58886591    -0.82700
O701        O  0.27679217  0.87259923  0.62624325    -0.85300
C702        C  0.26597156  0.89929004  0.61157496     1.02400
O703        O  0.23002734  0.88131543  0.59470895    -0.78100
O704        O  0.15809428  0.81502223  0.55865334    -0.78300
C705        C  0.17879748  0.80811591  0.53723367     1.02400
O706        O  0.12016113  0.72165631  0.57116771    -0.85600
O707        O  0.17569628  0.69290553  0.60211169    -0.82600
C708        C  0.20927233  0.69502888  0.61759020     0.97900
O709        O  0.24652747  0.73545862  0.62277933    -0.82700
O710        O  0.21662900  0.78501743  0.65650004    -0.85300
C711        C  0.19772232  0.80902171  0.66469421     1.02400
O712        O  0.18257434  0.82792293  0.64610771    -0.78100
O713        O  0.11279794  0.75691092  0.60979734    -0.78200
C714        C  0.09391799  0.72533130  0.59019134     1.02300
Cr715      Cr  0.19065616  0.74257876  0.57228922     1.93700
Cr716      Cr  0.25652921  0.80272070  0.62180590     1.93200
Cr717      Cr  0.17320168  0.81785369  0.60210923     1.39100
O718        O  0.20672742  0.78790678  0.59882677    -1.23300
O719        O  0.22068910  0.78351187  0.79724268    -0.85600
O720        O  0.26935519  0.75197865  0.83181313    -0.82600
C721        C  0.30985618  0.78792853  0.83857523     0.97900
O722        O  0.31177615  0.82100769  0.85433449    -0.82700
O723        O  0.28061937  0.87547038  0.88430776    -0.85300
C724        C  0.27711910  0.90192679  0.86526574     1.02400
O725        O  0.24696724  0.88404282  0.84484967    -0.78100
O726        O  0.17742172  0.81681903  0.80782518    -0.78300
C727        C  0.19934498  0.80566933  0.78937956     1.02400
O728        O  0.13228504  0.72107681  0.82658879    -0.85600
O729        O  0.18301954  0.69508924  0.86420686    -0.82600
C730        C  0.21476357  0.69868384  0.88198506     0.97900
O731        O  0.24998947  0.73955202  0.88810401    -0.82700
O732        O  0.21180443  0.79025769  0.91302081    -0.85300
C733        C  0.19130500  0.81464149  0.91618761     1.02400
O734        O  0.18697337  0.83758510  0.89491987    -0.78100
O735        O  0.12247143  0.76688957  0.85791849    -0.78200
C736        C  0.10513468  0.73080589  0.84134958     1.02300
Cr737      Cr  0.20221923  0.74165536  0.83174116     1.93700
Cr738      Cr  0.26013625  0.80559424  0.88280602     1.93200
Cr739      Cr  0.18593099  0.82383909  0.85161895     1.39100
O740        O  0.21598290  0.79032688  0.85526727    -1.23300
O741        O  0.20868508  0.42891871  0.62654523    -0.85600
O742        O  0.24749061  0.51869405  0.65150845    -0.82600
C743        C  0.21202627  0.52431650  0.65679489     0.97900
O744        O  0.17994267  0.49594121  0.67394783    -0.82700
O745        O  0.12943581  0.42007795  0.71215068    -0.85300
C746        C  0.10207060  0.38239640  0.69779987     1.02400
O747        O  0.11899356  0.36374888  0.68103051    -0.78100
O748        O  0.18375985  0.35698218  0.64488239    -0.78300
C749        C  0.18872856  0.38402590  0.62336697     1.02400
O750        O  0.27705755  0.41207376  0.65645774    -0.85600
O751        O  0.30803998  0.49706553  0.68656120    -0.82600
C752        C  0.30678584  0.52863551  0.70214254     0.97900
O753        O  0.26685802  0.52616145  0.70752144    -0.82700
O754        O  0.21744968  0.44738752  0.74217710    -0.85300
C755        C  0.19418639  0.40432730  0.75035202     1.02400
O756        O  0.17465902  0.37037658  0.73189245    -0.78100
O757        O  0.24385170  0.37085849  0.69575555    -0.78200
C758        C  0.27441226  0.38291026  0.67586678     1.02300
Cr759      Cr  0.25689984  0.46191975  0.65730120     1.93700
Cr760      Cr  0.19928711  0.46956586  0.70711482     1.93200
Cr761      Cr  0.18276143  0.37031614  0.68813258     1.39100
O762        O  0.21276768  0.43376168  0.68431371    -1.23300
O763        O  0.21607558  0.44352490  0.88288733    -0.85600
O764        O  0.24941455  0.52330548  0.91677400    -0.82600
C765        C  0.21246853  0.52651767  0.92212302     0.97900
O766        O  0.17955689  0.49551362  0.93786586    -0.82700
O767        O  0.12555352  0.41146871  0.96914327    -0.85300
C768        C  0.09844953  0.38113361  0.95038697     1.02400
O769        O  0.11599033  0.36827426  0.93030469    -0.78100
O770        O  0.18312647  0.36671949  0.89315213    -0.78300
C771        C  0.19412668  0.40028105  0.87485590     1.02400
O772        O  0.27832387  0.41614021  0.91153779    -0.85600
O773        O  0.30596989  0.49291241  0.94948537    -0.82600
C774        C  0.30298812  0.52187675  0.96661370     0.97900
O775        O  0.26220502  0.51654712  0.97249262    -0.82700
O776        O  0.21042554  0.42810404  0.99864568    -0.85300
C777        C  0.18509412  0.38329039  0.00203289     1.02400
O778        O  0.16395888  0.35567071  0.98048569    -0.78100
O779        O  0.23411849  0.36123645  0.94346628    -0.78200
C780        C  0.26928690  0.37936201  0.92638476     1.02300
Cr781      Cr  0.25880770  0.46606356  0.91701648     1.93700
Cr782      Cr  0.19553798  0.46062011  0.96745639     1.93200
Cr783      Cr  0.17682504  0.36778607  0.93709933     1.39100
O784        O  0.21050835  0.43127334  0.94056802    -1.23300
O785        O  0.56379702  0.78115391  0.96663429    -0.85600
O786        O  0.48026029  0.73442134  0.99677977    -0.82600
C787        C  0.47642359  0.69430819  0.00346935     0.97900
O788        O  0.50392972  0.69163919  0.52014457    -0.82700
O789        O  0.58465569  0.72105656  0.55456643    -0.85300
C790        C  0.61541191  0.72392732  0.53644639     1.02400
O791        O  0.63212596  0.75719615  0.51793911    -0.78100
O792        O  0.63936921  0.82627256  0.97980963    -0.78300
C793        C  0.60778414  0.80177024  0.96061163     1.02400
O794        O  0.58804147  0.87089419  0.99337950    -0.85600
O795        O  0.50434287  0.82011041  0.52747040    -0.82600
C796        C  0.47383122  0.78817834  0.54398525     0.97900
O797        O  0.47908187  0.75309326  0.55162939    -0.82700
O798        O  0.56463475  0.78946870  0.58176207    -0.85300
C799        C  0.60899169  0.81001760  0.58745447     1.02400
O800        O  0.63889681  0.81597496  0.56768498    -0.78100
O801        O  0.63580635  0.88099122  0.52901689    -0.78200
C802        C  0.61982581  0.89784645  0.50998460     1.02300
Cr803      Cr  0.53745807  0.80131803  0.99822056     1.93700
Cr804      Cr  0.53564841  0.74230279  0.55014216     1.93200
Cr805      Cr  0.63133239  0.81777983  0.52370343     1.39100
O806        O  0.56756914  0.78709386  0.52395033    -1.23300
O807        O  0.56675999  0.79195412  0.71588448    -0.85600
O808        O  0.48224325  0.73837224  0.74424408    -0.82600
C809        C  0.47775652  0.69703830  0.74610756     0.97900
O810        O  0.50705167  0.69113290  0.76155868    -0.82700
O811        O  0.58560677  0.71153434  0.79699460    -0.85300
C812        C  0.62139878  0.72156485  0.78126848     1.02400
O813        O  0.63870563  0.75795299  0.76501034    -0.78100
O814        O  0.64225004  0.83114632  0.73084560    -0.78300
C815        C  0.61102759  0.81480644  0.71043825     1.02400
O816        O  0.58885633  0.87374598  0.75024064    -0.85600
O817        O  0.50871529  0.81689271  0.78374102    -0.82600
C818        C  0.47780586  0.78175440  0.79821402     0.97900
O819        O  0.48089877  0.74406474  0.80059881    -0.82700
O820        O  0.56458304  0.77189933  0.83103219    -0.85300
C821        C  0.60874766  0.79307933  0.83745107     1.02400
O822        O  0.64054571  0.80766506  0.81775018    -0.78100
O823        O  0.64056504  0.87912215  0.78344977    -0.78200
C824        C  0.62439042  0.89887023  0.76665218     1.02300
Cr825      Cr  0.53936339  0.80389682  0.75050010     1.93700
Cr826      Cr  0.53739083  0.73376210  0.79566546     1.93200
Cr827      Cr  0.63525726  0.81634126  0.77423362     1.39100
O828        O  0.57113404  0.78494024  0.77353733    -1.23300
O829        O  0.77718821  0.20422061  0.66924249    -0.85600
O830        O  0.72967720  0.24480815  0.69662801    -0.82600
C831        C  0.68993156  0.21011688  0.70503625     0.97900
O832        O  0.68920843  0.18034731  0.72312398    -0.82700
O833        O  0.72082720  0.13264429  0.75914802    -0.85300
C834        C  0.72797774  0.10373163  0.74409181     1.02400
O835        O  0.75992509  0.11943031  0.72483969    -0.78100
O836        O  0.82757065  0.18186508  0.68525786    -0.78300
C837        C  0.80419000  0.18708859  0.66451953     1.02400
O838        O  0.86679862  0.27572462  0.69455670    -0.85600
O839        O  0.81717788  0.30937436  0.72586728    -0.82600
C840        C  0.78838422  0.30976235  0.74409317     0.97900
O841        O  0.75230386  0.27072664  0.75246877    -0.82700
O842        O  0.78865587  0.22468509  0.78412565    -0.85300
C843        C  0.80903124  0.20157429  0.79157068     1.02400
O844        O  0.81653957  0.17700884  0.77297496    -0.78100
O845        O  0.87971927  0.24411066  0.73328659    -0.78200
C846        C  0.89575860  0.27433444  0.71286818     1.02300
Cr847      Cr  0.79675566  0.25515388  0.69858864     1.93700
Cr848      Cr  0.74094553  0.20268527  0.75272680     1.93200
Cr849      Cr  0.81840734  0.18285505  0.72890928     1.39100
O850        O  0.78527000  0.21343770  0.72676909    -1.23300
O851        O  0.78490425  0.21847899  0.53753010    -0.85600
O852        O  0.74981064  0.27054379  0.50931234    -0.82600
C853        C  0.78607551  0.31007124  0.50185404     0.97900
O854        O  0.81663245  0.31157888  0.98433965    -0.82700
O855        O  0.86535881  0.28141418  0.94993782    -0.85300
C856        C  0.89292570  0.27504738  0.96692714     1.02400
O857        O  0.87559519  0.24123499  0.98513242    -0.78100
O858        O  0.80799654  0.16871281  0.52190706    -0.78300
C859        C  0.80351684  0.19265952  0.54234518     1.02400
O860        O  0.71528398  0.13151048  0.50910903    -0.85600
O861        O  0.68689834  0.18527633  0.97664738    -0.82600
C862        C  0.68887111  0.21670483  0.95937714     0.97900
O863        O  0.72918034  0.25259435  0.95286671    -0.82700
O864        O  0.77574709  0.21643434  0.92188488    -0.85300
C865        C  0.80233599  0.19988801  0.91496739     1.02400
O866        O  0.82315297  0.18866117  0.93448716    -0.78100
O867        O  0.75221862  0.12177729  0.97125596    -0.78200
C868        C  0.72114257  0.10464555  0.99099646     1.02300
Cr869      Cr  0.73717413  0.20225992  0.50623787     1.93700
Cr870      Cr  0.79572654  0.26197896  0.95412695     1.93200
Cr871      Cr  0.81283671  0.18275453  0.97821957     1.39100
O872        O  0.78236342  0.21591272  0.97953160    -1.23300
O873        O  0.77635174  0.56405803  0.50317430    -0.85600
O874        O  0.74684570  0.48052493  0.53337496    -0.82600
C875        C  0.78426331  0.47912291  0.54117031     0.97900
O876        O  0.81358424  0.50920085  0.55919904    -0.82700
O877        O  0.85963498  0.59053734  0.59365816    -0.85300
C878        C  0.88685504  0.62241334  0.57579387     1.02400
O879        O  0.86917311  0.63656012  0.55617206    -0.78100
O880        O  0.80248949  0.63824905  0.51769807    -0.78300
C881        C  0.79409241  0.60800070  0.49751487     1.02400
O882        O  0.70729457  0.58132271  0.53137938    -0.85600
O883        O  0.68173310  0.50149140  0.56529684    -0.82600
C884        C  0.68512298  0.47297123  0.58261569     0.97900
O885        O  0.72593279  0.47859486  0.58923130    -0.82700
O886        O  0.76825312  0.56371972  0.61878192    -0.85300
C887        C  0.78982696  0.60779147  0.62491480     1.02400
O888        O  0.81454630  0.63868278  0.60568153    -0.78100
O889        O  0.74487987  0.63132490  0.56735678    -0.78200
C890        C  0.71154239  0.61389274  0.54867755     1.02300
Cr891      Cr  0.73134187  0.53430311  0.53528866     1.93700
Cr892      Cr  0.79091236  0.53796463  0.58824417     1.93200
Cr893      Cr  0.80581720  0.63162179  0.56162770     1.39100
O894        O  0.77625139  0.56804632  0.56146528    -1.23300
O895        O  0.78503656  0.56585555  0.86887236    -0.85600
O896        O  0.73789838  0.48038346  0.83878564    -0.82600
C897        C  0.69703922  0.47520663  0.83247733     0.97900
O898        O  0.69386799  0.50445186  0.81570849    -0.82700
O899        O  0.71790026  0.58470240  0.78299776    -0.85300
C900        C  0.72432682  0.61843415  0.80001789     1.02400
O901        O  0.75722811  0.63381307  0.81900762    -0.78100
O902        O  0.82985185  0.64095633  0.85519225    -0.78300
C903        C  0.80724157  0.61007506  0.87479574     1.02400
O904        O  0.87353854  0.59109404  0.84001243    -0.85600
O905        O  0.82371463  0.50955516  0.80618856    -0.82600
C906        C  0.79331953  0.48031504  0.78825501     0.97900
O907        O  0.75616197  0.48291542  0.78164678    -0.82700
O908        O  0.78641227  0.56809344  0.75319821    -0.85300
C909        C  0.80090968  0.61149006  0.74748976     1.02400
O910        O  0.81115011  0.64170397  0.76792384    -0.78100
O911        O  0.88062053  0.63978038  0.80434309    -0.78200
C912        C  0.89950271  0.62564024  0.82319016     1.02300
Cr913      Cr  0.80397268  0.53925162  0.83656799     1.93700
Cr914      Cr  0.74203390  0.53744489  0.78535313     1.93200
Cr915      Cr  0.81771028  0.63417694  0.81152245     1.39100
O916        O  0.78811029  0.57036269  0.81103937    -1.23300
O917        O  0.43262668  0.21997455  0.59141919    -0.85600
O918        O  0.51392746  0.26654921  0.62351052    -0.82600
C919        C  0.51732845  0.30690156  0.62857772     0.97900
O920        O  0.48808105  0.30963815  0.64545927    -0.82700
O921        O  0.40686724  0.28096910  0.67914877    -0.85300
C922        C  0.37569279  0.27788164  0.66097548     1.02400
O923        O  0.36104205  0.24658341  0.64117919    -0.78100
O924        O  0.35633446  0.17787139  0.60301887    -0.72300
C925        C  0.38895445  0.20062620  0.58440014     1.02400
O926        O  0.40687549  0.13100284  0.61942696    -0.85600
O927        O  0.48593880  0.18043098  0.65608381    -0.82600
C928        C  0.51642113  0.21282022  0.67261222     0.97900
O929        O  0.51198756  0.24882019  0.67873066    -0.82700
O930        O  0.42578656  0.21280762  0.70684510    -0.85300
C931        C  0.38125463  0.19271534  0.71132925     1.02400
O932        O  0.35190538  0.18657085  0.69076730    -0.78100
O933        O  0.35358784  0.12095542  0.65227051    -0.78200
C934        C  0.37062137  0.10367484  0.63449972     1.02300
Cr935      Cr  0.45706838  0.20021960  0.62456727     1.93700
Cr936      Cr  0.45570774  0.25964158  0.67553183     1.93200
Cr937      Cr  0.36051425  0.18519692  0.64700900     1.39100
O938        O  0.42414507  0.21459395  0.64907800    -1.23300
O939        O  0.42808075  0.21743292  0.83794531    -0.85600
O940        O  0.51517012  0.26846520  0.86661332    -0.82600
C941        C  0.51973847  0.30954395  0.87026408     0.97900
O942        O  0.48966346  0.31366838  0.88552115    -0.82700
O943        O  0.41155245  0.29053995  0.92085096    -0.85300
C944        C  0.37324424  0.27813027  0.90659171     1.02400
O945        O  0.35532194  0.24165363  0.89032436    -0.78100
O946        O  0.35410490  0.17260536  0.85403706    -0.78300
C947        C  0.38343740  0.19255785  0.83328058     1.02400
O948        O  0.40808474  0.13314543  0.86803250    -0.85600
O949        O  0.48919362  0.18691122  0.90261533    -0.82600
C950        C  0.51978910  0.22069572  0.91835377     0.97900
O951        O  0.51647004  0.25797546  0.92259839    -0.82700
O952        O  0.43573451  0.23088000  0.95406812    -0.85300
C953        C  0.39196091  0.20791936  0.96067299     1.02400
O954        O  0.35932313  0.19192351  0.94118373    -0.78100
O955        O  0.36332200  0.12492219  0.90521144    -0.78200
C956        C  0.37566110  0.10633935  0.88550666     1.02300
Cr957      Cr  0.45762977  0.20275973  0.87087326     1.93700
Cr958      Cr  0.46060631  0.26943413  0.91881334     1.93200
Cr959      Cr  0.36302216  0.18534906  0.89757259     1.39100
O960        O  0.42670901  0.21927478  0.89584939    -1.23300
C961        C  0.36533705  0.18036484  0.74162839    -0.00400
C962        C  0.35094887  0.20899475  0.75679040    -0.12300
C963        C  0.35187812  0.21015014  0.78734225     0.01800
C964        C  0.36731561  0.18234028  0.80280225    -0.00500
C965        C  0.37722465  0.15046408  0.78766740    -0.12200
C966        C  0.37622953  0.14920751  0.75729538     0.01700
H967        H  0.34297616  0.23342003  0.74484399     0.14700
H968        H  0.38897349  0.12884500  0.79958508     0.14700
C969        C  0.38929240  0.11780582  0.74250060     0.36400
C970        C  0.34044757  0.24252319  0.80239312     0.36300
N971        N  0.39947519  0.09257337  0.73048191    -0.44000
N972        N  0.33113333  0.26817171  0.81469480    -0.44000
C973        C  0.37779858  0.20324078  0.55344432    -0.00400
C974        C  0.34981422  0.16052059  0.53763642    -0.12300
C975        C  0.35118267  0.16044811  0.50704076     0.01800
C976        C  0.38043211  0.20470891  0.99190964    -0.00500
C977        C  0.40403861  0.24697103  0.50792006    -0.12200
C978        C  0.40388827  0.24696445  0.53822273     0.01700
H979        H  0.33066010  0.12663390  0.54917154     0.14700
H980        H  0.42421422  0.28164839  0.99651440     0.14700
C981        C  0.43385336  0.29200927  0.55316473     0.36400
C982        C  0.33251918  0.11547059  0.99166780     0.36300
N983        N  0.45830542  0.32806095  0.56501604    -0.44000
N984        N  0.31640063  0.07879213  0.97986266    -0.44000
C985        C  0.56363667  0.35249546  0.85934930    -0.00400
C986        C  0.60419015  0.34787246  0.85391965    -0.12300
C987        C  0.64821844  0.38744576  0.84621711     0.01800
C988        C  0.65231162  0.43307499  0.84296936    -0.00500
C989        C  0.61156098  0.43768585  0.84763244    -0.12200
C990        C  0.56761531  0.39812725  0.85602419     0.01700
H991        H  0.60203915  0.31325039  0.85647578     0.14700
H992        H  0.61409759  0.47242909  0.84481426     0.14700
C993        C  0.52723154  0.40540619  0.86040071     0.36400
C994        C  0.68791819  0.37938621  0.84103242     0.36300
N995        N  0.49497972  0.41145580  0.86386860    -0.44000
N996        N  0.71928314  0.37217122  0.83705675    -0.44000
C997        C  0.80064794  0.62210278  0.96658551    -0.00400
C998        C  0.84592051  0.64494909  0.95324508    -0.12300
C999        C  0.84948780  0.64591916  0.92269333     0.01800
C1000       C  0.80723934  0.62404601  0.90535162    -0.00500
C1001       C  0.76248735  0.60514946  0.91875546    -0.12200
C1002       C  0.75880380  0.60367420  0.94897432     0.01700
H1003       H  0.87813819  0.65865019  0.96655890     0.14700
H1004       H  0.72996230  0.58816242  0.90553808     0.14700
C1005       C  0.71114918  0.57924763  0.96120548     0.36400
C1006       C  0.89636141  0.66506580  0.90979088     0.36300
N1007       N  0.67258229  0.55911939  0.97043678    -0.44000
N1008       N  0.93391013  0.68029740  0.89943079    -0.44000
C1009       C  0.78906386  0.62107795  0.65567140    -0.00400
C1010       C  0.83205845  0.65518481  0.66955415    -0.12300
C1011       C  0.83632544  0.65637407  0.70012789     0.01800
C1012       C  0.79710049  0.62317506  0.71684190    -0.00500
C1013       C  0.75271525  0.59379962  0.70304947    -0.12200
C1014       C  0.74828752  0.59236723  0.67288246     0.01700
H1015       H  0.86352054  0.67774653  0.65659889     0.14700
H1016       H  0.72189482  0.56918948  0.71593697     0.14700
C1017       C  0.70227527  0.55805969  0.66025415     0.36400
C1018       C  0.88202146  0.68873990  0.71362256     0.36300
N1019       N  0.66544032  0.53017934  0.65035686    -0.44000
N1020       N  0.91865762  0.71483553  0.72446421    -0.44000
C1021       C  0.64147409  0.43078229  0.59374049    -0.00400
C1022       C  0.60200088  0.43514862  0.60248006    -0.12300
C1023       C  0.56065289  0.39547460  0.61380081     0.01800
C1024       C  0.55855894  0.35051038  0.61622085    -0.00500
C1025       C  0.59772291  0.34636748  0.60667875    -0.12200
C1026       C  0.63854486  0.38555100  0.59542382     0.01700
H1027       H  0.60368151  0.46966022  0.60074552     0.14700
H1028       H  0.59678483  0.31215837  0.60806626     0.14700
C1029       C  0.67562741  0.37713629  0.58440941     0.36400
C1030       C  0.52079348  0.40170161  0.62199296     0.36300
N1031       N  0.70439889  0.36904648  0.57550860    -0.44000
N1032       N  0.48870917  0.40654925  0.62845538    -0.44000
C1033       C  0.79053899  0.35594177  0.51116951    -0.00400
C1034       C  0.80372044  0.37161137  0.53987451    -0.12300
C1035       C  0.80573961  0.41399752  0.54951931     0.01800
C1036       C  0.79131866  0.43956914  0.53065346    -0.00500
C1037       C  0.77969604  0.42453003  0.50167133    -0.12200
C1038       C  0.78062349  0.38416218  0.99185826     0.01700
H1039       H  0.81237624  0.35067925  0.55474903     0.14700
H1040       H  0.76978083  0.44478003  0.98725835     0.14700
C1041       C  0.77161157  0.37243310  0.96132969     0.36400
C1042       C  0.82003615  0.42868427  0.57930274     0.36300
N1043       N  0.76563674  0.36432695  0.93666996    -0.44000
N1044       N  0.83168720  0.44040229  0.60315427    -0.44000
C1045       C  0.64439259  0.21505708  0.94856881    -0.00400
C1046       C  0.64738134  0.25904330  0.94179861    -0.12300
C1047       C  0.60736088  0.26167612  0.93267825     0.01800
C1048       C  0.56234133  0.21912599  0.92959320    -0.00500
C1049       C  0.55898668  0.17465182  0.93602372    -0.12200
C1050       C  0.59940339  0.17230807  0.94580714     0.01700
H1051       H  0.68124990  0.29218386  0.94430389     0.14700
H1052       H  0.52466375  0.14170993  0.93362610     0.14700
C1053       C  0.59380986  0.12576400  0.95233073     0.36400
C1054       C  0.61439194  0.30891408  0.92640696     0.36300
N1055       N  0.58930904  0.08847150  0.95765006    -0.44000
N1056       N  0.62043091  0.34700045  0.92181363    -0.44000
C1057       C  0.81407950  0.20119453  0.88398629    -0.00400
C1058       C  0.80379256  0.15900408  0.86913346    -0.12300
C1059       C  0.80613928  0.15875032  0.83861663     0.01800
C1060       C  0.81997016  0.20157374  0.82285483    -0.00500
C1061       C  0.83457370  0.24445172  0.83816518    -0.12200
C1062       C  0.83125224  0.24458276  0.86831465     0.01700
H1063       H  0.79058619  0.12566672  0.88111767     0.14700
H1064       H  0.84540707  0.27757176  0.82630191     0.14700
C1065       C  0.84330811  0.28950953  0.88242467     0.36400
C1066       C  0.78947954  0.11332120  0.82410066     0.36300
N1067       N  0.85268995  0.32555753  0.89347821    -0.44000
N1068       N  0.77584820  0.07655807  0.81278703    -0.44000
C1069       C  0.81599200  0.18823436  0.57273859    -0.00400
C1070       C  0.79038113  0.14346563  0.58681722    -0.12300
C1071       C  0.78909937  0.14085016  0.61739365     0.01800
C1072       C  0.81507625  0.18321130  0.63394422    -0.00500
C1073       C  0.84472297  0.22675837  0.61973868    -0.12200
C1074       C  0.84472920  0.22980221  0.58946514     0.01700
H1075       H  0.76798562  0.11156972  0.57418465     0.14700
H1076       H  0.86448566  0.25930483  0.63240428     0.14700
C1077       C  0.87132393  0.27671843  0.57621731     0.36400
C1078       C  0.75795007  0.09535541  0.63119705     0.36300
N1079       N  0.89239782  0.31437690  0.56567450    -0.44000
N1080       N  0.73290604  0.05885593  0.64223648    -0.44000
C1081       C  0.79492940  0.35627836  0.75430029    -0.00400
C1082       C  0.80987485  0.37101172  0.78301370    -0.12300
C1083       C  0.81345378  0.41356249  0.79384238     0.01800
C1084       C  0.79890014  0.44045297  0.77627723    -0.00500
C1085       C  0.78571586  0.42647499  0.74720759    -0.12200
C1086       C  0.78515982  0.38566111  0.73591100     0.01700
H1087       H  0.81869851  0.34920732  0.79698263     0.14700
H1088       H  0.77581749  0.44750718  0.73329222     0.14700
C1089       C  0.77414931  0.37449593  0.70544547     0.36400
C1090       C  0.83037930  0.42758939  0.82335662     0.36300
N1091       N  0.76604964  0.36611359  0.68091999    -0.44000
N1092       N  0.84421411  0.43886574  0.84695953    -0.44000
C1093       C  0.64477221  0.20871043  0.69642383    -0.00400
C1094       C  0.64519386  0.25252489  0.69561407    -0.12300
C1095       C  0.60373546  0.25449607  0.68896752     0.01800
C1096       C  0.56012035  0.21160787  0.68239107    -0.00500
C1097       C  0.55966412  0.16750928  0.68327505    -0.12200
C1098       C  0.60134645  0.16569868  0.69061971     0.01700
H1099       H  0.67815968  0.28563471  0.70073364     0.14700
H1100       H  0.52668433  0.13434670  0.67820459     0.14700
C1101       C  0.59905396  0.11962810  0.69126847     0.36400
C1102       C  0.60806413  0.30154548  0.68836236     0.36300
N1103       N  0.59739384  0.08277749  0.69186441    -0.44000
N1104       N  0.61178431  0.33932141  0.68802008    -0.44000
C1105       C  0.64620571  0.69328671  0.78424063    -0.00400
C1106       C  0.69654756  0.71859475  0.78664197    -0.12300
C1107       C  0.72201929  0.69470192  0.79262762     0.01800
C1108       C  0.69727935  0.64410308  0.79539424    -0.00500
C1109       C  0.64698480  0.61839735  0.79220289    -0.12200
C1110       C  0.62124515  0.64265353  0.78725390     0.01700
H1111       H  0.71603650  0.75747420  0.78477438     0.14700
H1112       H  0.62781341  0.57953499  0.79404820     0.14700
C1113       C  0.56947076  0.61482937  0.78479974     0.36400
C1114       C  0.77379824  0.72296564  0.79537461     0.36300
N1115       N  0.52796188  0.59258704  0.78285262    -0.44000
N1116       N  0.81524268  0.74522397  0.79779824    -0.44000
C1117       C  0.70135212  0.05140292  0.75052486    -0.00400
C1118       C  0.65181387  0.02805015  0.75625929    -0.12300
C1119       C  0.62588170  0.97838676  0.76195837     0.01800
C1120       C  0.65011170  0.95185597  0.76360737    -0.00500
C1121       C  0.69978655  0.97551978  0.75877687    -0.12200
C1122       C  0.72525100  0.02443115  0.75167405     0.01700
H1123       H  0.63309093  0.04831909  0.75539643     0.14700
H1124       H  0.71850478  0.95520283  0.75937376     0.14700
C1125       C  0.77616944  0.04615592  0.74619373     0.36400
C1126       C  0.57448300  0.95535357  0.76580594     0.36300
N1127       N  0.81694616  0.06361285  0.74177709    -0.44000
N1128       N  0.53322428  0.93670837  0.76866061    -0.44000
C1129       C  0.63433851  0.69022263  0.53838296    -0.00400
C1130       C  0.63656350  0.67180875  0.56573061    -0.12300
C1131       C  0.65995159  0.64520551  0.56944477     0.01800
C1132       C  0.68030647  0.63518163  0.54534029    -0.00500
C1133       C  0.67509881  0.65051138  0.51769713    -0.12200
C1134       C  0.65270053  0.67805181  0.51401342     0.01700
H1135       H  0.62181526  0.67995648  0.58457818     0.14700
H1136       H  0.69089561  0.64315394  0.49904469     0.14700
C1137       C  0.64986096  0.69281150  0.98533359     0.36400
C1138       C  0.66299071  0.62907060  0.59825498     0.36300
N1139       N  0.64712543  0.70433524  0.96187758    -0.44000
N1140       N  0.66528700  0.61640311  0.62146223    -0.44000
C1141       C  0.64289441  0.95061200  0.50581885    -0.00400
C1142       C  0.64950089  0.96950091  0.97734839    -0.12300
C1143       C  0.67384647  0.01912504  0.97187833     0.01800
C1144       C  0.69283214  0.05194527  0.99526356    -0.00500
C1145       C  0.68455766  0.03306645  0.52381905    -0.12200
C1146       C  0.66243289  0.98355899  0.52916267     0.01700
H1147       H  0.63501898  0.94465390  0.95924364     0.14700
H1148       H  0.69936503  0.05784873  0.54181285     0.14700
C1149       C  0.66110279  0.96789943  0.55877501     0.36400
C1150       C  0.67903057  0.03532332  0.94212109     0.36300
N1151       N  0.66070149  0.95559596  0.58248976    -0.44000
N1152       N  0.68352988  0.04828360  0.91826097    -0.44000
C1153       C  0.62033453  0.79814044  0.93014047    -0.00400
C1154       C  0.65130130  0.83987115  0.91437548    -0.12300
C1155       C  0.65190804  0.83889399  0.88369301     0.01800
C1156       C  0.62108650  0.79572816  0.86874376    -0.00500
C1157       C  0.59453272  0.75340396  0.88473591    -0.12200
C1158       C  0.59383928  0.75420369  0.91497516     0.01700
H1159       H  0.67193747  0.87380941  0.92575988     0.14700
H1160       H  0.57175253  0.71977420  0.87341042     0.14700
C1161       C  0.56309842  0.70956616  0.92977149     0.36400
C1162       C  0.68129167  0.88298523  0.86809946     0.36300
N1163       N  0.53836060  0.67362683  0.94141204    -0.44000
N1164       N  0.70505668  0.91830945  0.85557798    -0.44000
C1165       C  0.62399022  0.82394386  0.61811951    -0.00400
C1166       C  0.60331319  0.84710476  0.63293122    -0.12300
C1167       C  0.60382639  0.84885797  0.66325249     0.01800
C1168       C  0.62425424  0.82605662  0.67952443    -0.00500
C1169       C  0.64919076  0.80696723  0.66488863    -0.12200
C1170       C  0.64967752  0.80630647  0.63423203     0.01700
H1171       H  0.58423505  0.86151050  0.62076374     0.14700
H1172       H  0.66533857  0.78974918  0.67722559     0.14700
C1173       C  0.67358493  0.78424925  0.61989658     0.36400
C1174       C  0.58080834  0.87216618  0.67733623     0.36300
N1175       N  0.69329518  0.76713139  0.60837798    -0.44000
N1176       N  0.56254725  0.89089926  0.68871253    -0.44000
C1177       C  0.94576485  0.30525471  0.96372214    -0.00400
C1178       C  0.96429942  0.32574133  0.93638720    -0.12300
C1179       C  0.01394049  0.35061372  0.93136791     0.01800
C1180       C  0.04599690  0.35706397  0.95426726    -0.00500
C1181       C  0.02774020  0.33828712  0.98177532    -0.12200
C1182       C  0.97824377  0.31181283  0.98659325     0.01700
H1183       H  0.93992978  0.32070644  0.91850096     0.14700
H1184       H  0.05237069  0.34264748  0.99937183     0.14700
C1185       C  0.96125969  0.28616456  0.51442408     0.36400
C1186       C  0.03114074  0.36893069  0.90262777     0.36300
N1187       N  0.94893275  0.26788750  0.53685984    -0.44000
N1188       N  0.04508089  0.38342967  0.87958256    -0.44000
C1189       C  0.29768140  0.35499676  0.92204071    -0.00400
C1190       C  0.27420089  0.30474866  0.92496772    -0.12300
C1191       C  0.29816232  0.27932991  0.91951836     0.01800
C1192       C  0.34682140  0.30420024  0.91104777    -0.00500
C1193       C  0.37087841  0.35448908  0.90880615    -0.12200
C1194       C  0.34666161  0.37999279  0.91391404     0.01700
H1195       H  0.23668252  0.28503893  0.93122095     0.14700
H1196       H  0.40857463  0.37381518  0.90293376     0.14700
C1197       C  0.37328558  0.43176516  0.91151300     0.36400
C1198       C  0.27266459  0.22793336  0.92422608     0.36300
N1199       N  0.39453434  0.47327239  0.90962220    -0.44000
N1200       N  0.25240132  0.18683305  0.92819429    -0.44000
C1201       C  0.34709516  0.56521585  0.97734888    -0.00400
C1202       C  0.39048135  0.56459010  0.97995223    -0.12300
C1203       C  0.43330193  0.60596141  0.98850918     0.01800
C1204       C  0.43341176  0.64941325  0.99360349    -0.00500
C1205       C  0.39025382  0.65006225  0.99064152    -0.12200
C1206       C  0.34735022  0.60869791  0.98316194     0.01700
H1207       H  0.39091800  0.53168453  0.97542594     0.14700
H1208       H  0.38969876  0.68300621  0.99490347     0.14700
C1209       C  0.30459638  0.61286442  0.98122202     0.36400
C1210       C  0.47665154  0.60309406  0.99112530     0.36300
N1211       N  0.27049406  0.61645476  0.97998403    -0.44000
N1212       N  0.50939800  0.59977637  0.49298079    -0.44000
C1213       C  0.04988239  0.35759072  0.70256670    -0.00400
C1214       C  0.02004653  0.36302983  0.68243889    -0.12300
C1215       C  0.96990718  0.33784751  0.68567509     0.01800
C1216       C  0.94877785  0.30577869  0.70941243    -0.00500
C1217       C  0.97937478  0.30157518  0.72982381    -0.12200
C1218       C  0.02929468  0.32694488  0.72658476     0.01700
H1219       H  0.03601340  0.38685781  0.66401862     0.14700
H1220       H  0.96434285  0.27751646  0.74820418     0.14700
C1221       C  0.05824087  0.31915936  0.74771275     0.36400
C1222       C  0.94170760  0.34595465  0.66415902     0.36300
N1223       N  0.08036627  0.31184595  0.76488297    -0.44000
N1224       N  0.91954785  0.35302334  0.64687203    -0.44000
C1225       C  0.30403351  0.35956573  0.67313884    -0.00400
C1226       C  0.31615506  0.35237478  0.64505167    -0.12300
C1227       C  0.34028365  0.32682881  0.64056840     0.01800
C1228       C  0.35357958  0.30841729  0.66454207    -0.00500
C1229       C  0.34338999  0.31736337  0.69275969    -0.12200
C1230       C  0.31849747  0.34233057  0.69724187     0.01700
H1231       H  0.30551118  0.36556053  0.62634349     0.14700
H1232       H  0.35367150  0.30359757  0.71136252     0.14700
C1233       C  0.30899435  0.35029855  0.72672228     0.36400
C1234       C  0.35137503  0.32076264  0.61110953     0.36300
N1235       N  0.30152253  0.35674450  0.75036525    -0.44000
N1236       N  0.35992181  0.31631625  0.58733602    -0.44000
C1237       C  0.18610222  0.39519943  0.78192054    -0.00400
C1238       C  0.20103311  0.36644145  0.79658160    -0.12300
C1239       C  0.20078648  0.36449761  0.82718449     0.01800
C1240       C  0.18422992  0.39071752  0.84334326    -0.00500
C1241       C  0.16604127  0.41644044  0.82842564    -0.12200
C1242       C  0.16695354  0.41900261  0.79810906     0.01700
H1243       H  0.21581091  0.34816914  0.78429010     0.14700
H1244       H  0.15328216  0.43667101  0.84061589     0.14700
C1245       C  0.14918301  0.44754679  0.78413640     0.36400
C1246       C  0.22229932  0.33962728  0.84141337     0.36300
N1247       N  0.13505340  0.47051468  0.77300114    -0.44000
N1248       N  0.23998230  0.32000552  0.85271237    -0.44000
C1249       C  0.17557829  0.36508507  0.59348005    -0.00400
C1250       C  0.20780631  0.35595662  0.57809294    -0.12300
C1251       C  0.20807098  0.35645761  0.54754196     0.01800
C1252       C  0.17530512  0.36556329  0.53215834    -0.00500
C1253       C  0.13996230  0.36962514  0.54756190    -0.12200
C1254       C  0.13989119  0.36947820  0.57800632     0.01700
H1255       H  0.23571455  0.35309431  0.58986232     0.14700
H1256       H  0.11492114  0.37710101  0.53586453     0.14700
C1257       C  0.10527021  0.37765092  0.59299536     0.36400
C1258       C  0.24476513  0.35179186  0.53247524     0.36300
N1259       N  0.07747524  0.38403285  0.60506535    -0.44000
N1260       N  0.27410454  0.34802311  0.52031158    -0.44000
C1261       C  0.35202373  0.57118872  0.71226403    -0.00400
C1262       C  0.35223870  0.61472826  0.71533595    -0.12300
C1263       C  0.39337870  0.65657379  0.72453510     0.01800
C1264       C  0.43552185  0.65514443  0.73230754    -0.00500
C1265       C  0.43574581  0.61175957  0.72856478    -0.12200
C1266       C  0.39482114  0.57018608  0.71818814     0.01700
H1267       H  0.32003604  0.61634503  0.71011911     0.14700
H1268       H  0.46789117  0.61015568  0.73396055     0.14700
C1269       C  0.39741853  0.52683716  0.71474280     0.36400
C1270       C  0.39016331  0.69983625  0.72637096     0.36300
N1271       N  0.39959259  0.49216534  0.71185510    -0.44000
N1272       N  0.38745570  0.73441021  0.72770372    -0.44000
C1273       C  0.30313862  0.95390882  0.86971753    -0.00400
C1274       C  0.28422559  0.97253739  0.88974160    -0.12300
C1275       C  0.30637911  0.02192567  0.89481379     0.01800
C1276       C  0.35056006  0.05343332  0.88118974    -0.00500
C1277       C  0.36914983  0.03422047  0.86084601    -0.12200
C1278       C  0.34505941  0.98495229  0.85450454     0.01700
H1279       H  0.25076125  0.94839992  0.90059686     0.14700
H1280       H  0.40190229  0.05779960  0.84923042     0.14700
C1281       C  0.36282037  0.96726420  0.83172900     0.36400
C1282       C  0.28021629  0.03893312  0.91174472     0.36300
N1283       N  0.37651005  0.95317801  0.81311225    -0.44000
N1284       N  0.25821925  0.05214941  0.92463025    -0.44000
C1285       C  0.05248450  0.70236725  0.83737279    -0.00400
C1286       C  0.02733741  0.72741604  0.83423751    -0.12300
C1287       C  0.97779687  0.70302713  0.82903260     0.01800
C1288       C  0.95218902  0.65229241  0.82736862    -0.00500
C1289       C  0.97703140  0.62698881  0.83132038    -0.12200
C1290       C  0.02703489  0.65164622  0.83587768     0.01700
H1291       H  0.04665935  0.76641056  0.83542743     0.14700
H1292       H  0.95740983  0.58798479  0.83057062     0.14700
C1293       C  0.05112667  0.62420433  0.83980251     0.36400
C1294       C  0.95390020  0.73095965  0.82684248     0.36300
N1295       N  0.07044998  0.60221448  0.84293762    -0.44000
N1296       N  0.93488582  0.75345915  0.82521803    -0.44000
C1297       C  0.21100095  0.56955703  0.91194078    -0.00400
C1298       C  0.25498996  0.61254464  0.90920594    -0.12300
C1299       C  0.25685937  0.65509861  0.90060982     0.01800
C1300       C  0.21377036  0.65513096  0.89363339    -0.00500
C1301       C  0.16965178  0.61207503  0.89617320    -0.12200
C1302       C  0.16786867  0.56957953  0.90555738     0.01700
H1303       H  0.28843842  0.61320305  0.91430287     0.14700
H1304       H  0.13641311  0.61161182  0.89083838     0.14700
C1305       C  0.12151784  0.52642124  0.90751116     0.36400
C1306       C  0.30388569  0.69766307  0.89856875     0.36300
N1307       N  0.08421289  0.49196950  0.90907788    -0.44000
N1308       N  0.34153626  0.73174163  0.89716614    -0.44000
C1309       C  0.43558114  0.78285002  0.81024326    -0.00400
C1310       C  0.44070590  0.82653562  0.82019387    -0.12300
C1311       C  0.40105278  0.82921888  0.83055867     0.01800
C1312       C  0.35440066  0.78817160  0.82929739    -0.00500
C1313       C  0.34974451  0.74443492  0.81975110    -0.12200
C1314       C  0.38950875  0.74114866  0.81093231     0.01700
H1315       H  0.47608750  0.85853716  0.82047414     0.14700
H1316       H  0.31471726  0.71198299  0.81959372     0.14700
C1317       C  0.38123791  0.69432713  0.80231897     0.36400
C1318       C  0.40996397  0.87399582  0.84326417     0.36300
N1319       N  0.37412414  0.65650077  0.79580550    -0.44000
N1320       N  0.41771977  0.90966960  0.85412770    -0.44000
C1321       C  0.29306656  0.95183623  0.61630749    -0.00400
C1322       C  0.34357231  0.97635240  0.61733610    -0.12300
C1323       C  0.36986126  0.02589732  0.62329632     0.01800
C1324       C  0.34533816  0.05117350  0.62932856    -0.00500
C1325       C  0.29489618  0.02635561  0.62866178    -0.12200
C1326       C  0.26874323  0.97737489  0.62190992     0.01700
H1327       H  0.36243022  0.95684272  0.61332281     0.14700
H1328       H  0.27574523  0.04553823  0.63289942     0.14700
C1329       C  0.21683989  0.95382309  0.62195986     0.36400
C1330       C  0.42176476  0.04964709  0.62386216     0.36300
N1331       N  0.17526029  0.93485581  0.62196054    -0.44000
N1332       N  0.46336643  0.06886755  0.62429460    -0.44000
C1333       C  0.93964159  0.64541561  0.57929747    -0.00400
C1334       C  0.95979695  0.65724367  0.60738061    -0.12300
C1335       C  0.00981406  0.68216591  0.61168569     0.01800
C1336       C  0.04073038  0.69542399  0.58750551    -0.00500
C1337       C  0.02028560  0.68162320  0.55951938    -0.12200
C1338       C  0.97034233  0.65694433  0.55525220     0.01700
H1339       H  0.93634366  0.64792223  0.62604629     0.14700
H1340       H  0.04345133  0.69107243  0.54071317     0.14700
C1341       C  0.95145771  0.64243847  0.52611467     0.36400
C1342       C  0.02818316  0.69257081  0.64113342     0.36300
N1343       N  0.93623933  0.63040826  0.50282565    -0.44000
N1344       N  0.04258099  0.70054067  0.66481253    -0.44000
C1345       C  0.16947773  0.81655313  0.50691823    -0.00400
C1346       C  0.14045904  0.77533901  0.99074544    -0.12300
C1347       C  0.14247810  0.77571466  0.96036054     0.01800
C1348       C  0.17568286  0.81789893  0.94576765    -0.00500
C1349       C  0.20299473  0.86043712  0.96185322    -0.12200
C1350       C  0.20144146  0.85983600  0.99242143     0.01700
H1351       H  0.11368675  0.74254967  0.50164380     0.14700
H1352       H  0.22895036  0.89293689  0.95077102     0.14700
C1353       C  0.23383098  0.90232151  0.50832225     0.36400
C1354       C  0.11321105  0.73134629  0.94463885     0.36300
N1355       N  0.26047915  0.93654497  0.52112689    -0.44000
N1356       N  0.08999215  0.69592080  0.93189978    -0.44000
C1357       C  0.19889726  0.81826263  0.69638187    -0.00400
C1358       C  0.15684744  0.80680904  0.71167232    -0.12300
C1359       C  0.15677192  0.80617776  0.74235759     0.01800
C1360       C  0.19914097  0.81642888  0.75795433    -0.00500
C1361       C  0.24176913  0.83170255  0.74254253    -0.12200
C1362       C  0.24216470  0.83344286  0.71221139     0.01700
H1363       H  0.12358253  0.79575142  0.69974169     0.14700
H1364       H  0.27480798  0.84098294  0.75428297     0.14700
C1365       C  0.28762575  0.85040264  0.69774667     0.36400
C1366       C  0.11220876  0.79170484  0.75721580     0.36300
N1367       N  0.32406918  0.86424313  0.68618924    -0.44000
N1368       N  0.07658309  0.78036013  0.76920380    -0.44000
C1369       C  0.20786372  0.65026016  0.62750111    -0.00400
C1370       C  0.25192705  0.65179660  0.63173922    -0.12300
C1371       C  0.25396262  0.61097914  0.63996824     0.01800
C1372       C  0.21097143  0.56705552  0.64516866    -0.00500
C1373       C  0.16665387  0.56526713  0.64085722    -0.12200
C1374       C  0.16471208  0.60602212  0.63152046     0.01700
H1375       H  0.28536803  0.68509276  0.62804645     0.14700
H1376       H  0.13341347  0.53182087  0.64455743     0.14700
C1377       C  0.11809237  0.60137561  0.62642454     0.36400
C1378       C  0.30113935  0.61617471  0.64328866     0.36300
N1379       N  0.08080290  0.59764906  0.62203321    -0.44000
N1380       N  0.33920196  0.62088114  0.64553711    -0.44000
C1381       C  0.34319683  0.79066510  0.56317976    -0.00400
C1382       C  0.34338931  0.74710143  0.56293326    -0.12300
C1383       C  0.38558231  0.74574518  0.55792081     0.01800
C1384       C  0.42920120  0.78880560  0.55199873    -0.00500
C1385       C  0.42886348  0.83250485  0.55180448    -0.12200
C1386       C  0.38666018  0.83385712  0.55780884     0.01700
H1387       H  0.31056664  0.71380513  0.56772854     0.14700
H1388       H  0.46176360  0.86580178  0.54722484     0.14700
C1389       C  0.38879616  0.87988299  0.55803279     0.36400
C1390       C  0.38225908  0.69917682  0.55885297     0.36300
N1391       N  0.39037244  0.91670154  0.55835651    -0.44000
N1392       N  0.37931346  0.66176324  0.55987208    -0.44000
loop_ 
_geom_bond_atom_site_label_1 
_geom_bond_atom_site_label_2 
_geom_bond_distance 
_geom_bond_site_symmetry_2 
_ccdc_geom_bond_type 
O1          Cr19   1.960       .  S
O1            C9   1.259       .  A
O2          Cr19   2.026       .  S
O2            C3   1.269       .  A
C3            O4   1.255       .  A
C3          C685   1.484       .  S
O4          Cr20   1.968       .  S
O5          Cr20   2.013       .  S
O5            C6   1.266       .  A
C6            O7   1.259       .  A
C6          C625   1.477       .  S
O7          Cr21   1.970       .  S
O8          Cr21   2.044       .  S
O8            C9   1.274       .  A
C9          C649   1.477       .  S
O10         Cr19   2.014       .  S
O10          C18   1.267       .  A
O11         Cr19   1.973       .  S
O11          C12   1.259       .  A
C12          O13   1.272       .  A
C12         C673   1.488       .  S
O13         Cr20   2.021       .  S
O14         Cr20   1.953       .  S
O14          C15   1.256       .  A
C15          O16   1.273       .  A
C15         C661   1.485       .  S
O16         Cr21   2.048       .  S
O17         Cr21   1.980       .  S
O17          C18   1.260       .  A
C18         C640   1.486       .  S
Cr19         O22   1.766       .  S
Cr20         O22   1.762       .  S
Cr21         O22   1.773       .  S
O23         Cr41   1.972       .  S
O23          C31   1.260       .  A
O24         Cr41   2.011       .  S
O24          C25   1.270       .  A
C25          O26   1.263       .  A
C25         C616   1.492       .  S
O26         Cr42   1.983       .  S
O27         Cr42   1.999       .  S
O27          C28   1.262       .  A
C28          O29   1.256       .  A
C28         C577   1.459       .  S
O29         Cr43   1.972       .  S
O30         Cr43   2.027       .  S
O30          C31   1.268       .  A
C31         C664   1.486       .  S
O32         Cr41   2.011       .  S
O32          C40   1.267       .  A
O33         Cr41   1.982       .  S
O33          C34   1.259       .  A
C34          O35   1.261       .  A
C34         C604   1.481       .  S
O35         Cr42   1.991       .  S
O36         Cr42   1.965       .  S
O36          C37   1.259       .  A
C37          O38   1.271       .  A
C37         C652   1.476       .  S
O38         Cr43   2.037       .  S
O39         Cr43   1.964       .  S
O39          C40   1.259       .  A
C40         C589   1.476       .  S
Cr41         O44   1.765       .  S
Cr42         O44   1.768       .  S
Cr43         O44   1.774       .  S
O45         Cr63   1.963       .  S
O45          C53   1.259       .  A
O46         Cr63   2.007       .  S
O46          C47   1.264       .  A
C47          O48   1.260       .  A
C47         C676   1.489       .  S
O48         Cr64   1.986       .  S
O49         Cr64   2.008       .  S
O49          C50   1.265       .  A
C50          O51   1.259       .  A
C50         C517   1.467       .  S
O51         Cr65   1.973       .  S
O52         Cr65   2.039       .  S
O52          C53   1.272       .  A
C53         C553   1.475       .  S
O54         Cr63   2.002       .  S
O54          C62   1.264       .  A
O55         Cr63   1.974       .  S
O55          C56   1.261       .  A
C56          O57   1.271       .  A
C56         C565   1.483       .  S
O57         Cr64   2.016       .  S
O58         Cr64   1.962       .  S
O58          C59   1.258       .  A
C59          O60   1.269       .  A
C59         C541   1.479       .  S
O60         Cr65   2.028       .  S
O61         Cr65   1.981       .  S
O61          C62   1.259       .  A
C62         C529   1.481       .  S
Cr63         O66   1.766       .  S
Cr64         O66   1.769       .  S
Cr65         O66   1.775       .  S
O67         Cr85   1.961       .  S
O67          C75   1.257       .  A
O68         Cr85   2.004       .  S
O68          C69   1.267       .  A
C69          O70   1.261       .  A
C69         C601   1.479       .  S
O70         Cr86   1.981       .  S
O71         Cr86   2.000       .  S
O71          C72   1.262       .  A
C72          O73   1.259       .  A
C72         C484   1.470       .  S
O73         Cr87   1.981       .  S
O74         Cr87   2.036       .  S
O74          C75   1.270       .  A
C75         C544   1.479       .  S
O76         Cr85   2.008       .  S
O76          C84   1.265       .  A
O77         Cr85   1.982       .  S
O77          C78   1.261       .  A
C78          O79   1.265       .  A
C78         C505   1.485       .  S
O79         Cr86   2.002       .  S
O80         Cr86   1.963       .  S
O80          C81   1.259       .  A
C81          O82   1.272       .  A
C81        C1252   1.475       .  S
O82         Cr87   2.038       .  S
O83         Cr87   1.971       .  S
O83          C84   1.260       .  A
C84         C493   1.484       .  S
Cr85         O88   1.766       .  S
Cr86         O88   1.766       .  S
Cr87         O88   1.772       .  S
O89        Cr107   1.956       .  S
O89          C97   1.257       .  A
O90        Cr107   2.009       .  S
O90          C91   1.268       .  A
C91         O788   1.259       .  A
C91         C508   1.481       .  S
O92        Cr108   1.977       .  S
O92         C787   1.259       .  A
O93        Cr108   2.010       .  S
O93          C94   1.265       .  A
C94          O95   1.258       .  A
C94         C433   1.483       .  S
O95        Cr109   1.976       .  S
O96        Cr805   2.037       .  S
O96          C97   1.270       .  A
C97         C457   1.482       .  S
O98        Cr107   2.011       .  S
O98         C802   1.267       .  A
O99        Cr803   1.985   1_554  S
O99         C100   1.263       .  A
C100        O101   1.267       .  A
C100        C688   1.493       .  S
O101       Cr108   2.010       .  S
O102       Cr108   1.958       .  S
O102        C103   1.258       .  A
C103        O104   1.273       .  A
C103        C469   1.483       .  S
O104       Cr109   2.045       .  S
O105       Cr109   1.976       .  S
O105        C106   1.260       .  A
C106        O794   1.267   1_554  A
C106        C445   1.484       .  S
Cr107       O795   1.983       .  S
Cr107       O806   1.765       .  S
Cr108       O110   1.763       .  S
Cr109       O792   2.040   1_554  S
Cr109       O110   1.773       .  S
O110       Cr803   1.765   1_554  S
O111       Cr129   1.959       .  S
O111        C119   1.259       .  A
O112       Cr129   2.002       .  S
O112        C113   1.264       .  A
C113        O114   1.261       .  A
C113        C568   1.488       .  S
O114       Cr130   1.982       .  S
O115       Cr130   2.003       .  S
O115        C116   1.262       .  A
C116        O117   1.259       .  A
C116        C409   1.481       .  S
O117       Cr131   1.979       .  S
O118       Cr131   2.036       .  S
O118        C119   1.272       .  A
C119        C472   1.480       .  S
O120       Cr129   1.997       .  S
O120        C128   1.260       .  A
O121       Cr129   1.982       .  S
O121        C122   1.261       .  A
C122        O123   1.266       .  A
C122        C613   1.487       .  S
O123       Cr130   2.013       .  S
O124       Cr130   1.954       .  S
O124        C125   1.260       .  A
C125        O126   1.272       .  A
C125        C460   1.479       .  S
O126       Cr131   2.036       .  S
O127       Cr131   1.981       .  S
O127        C128   1.260       .  A
C128        C424   1.479       .  S
Cr129       O132   1.769       .  S
Cr130       O132   1.772       .  S
Cr131       O132   1.783       .  S
O133       Cr151   1.965       .  S
O133        C141   1.258       .  A
O134       Cr151   2.006       .  S
O134        C135   1.265       .  A
C135        O136   1.257       .  A
C135        C397   1.475       .  S
O136       Cr152   1.974       .  S
O137       Cr152   2.026       .  S
O137        C138   1.270       .  A
C138        O139   1.260       .  A
C138        C421   1.484       .  S
O139       Cr153   1.969       .  S
O140       Cr153   2.038       .  S
O140        C141   1.270       .  A
C141        C376   1.475       .  S
O142       Cr151   2.008       .  S
O142        C150   1.265       .  A
O143       Cr151   1.975       .  S
O143        C144   1.259       .  A
C144        O145   1.271       .  A
C144        C385   1.480       .  S
O145       Cr152   2.028       .  S
O146       Cr152   1.952       .  S
O146        C147   1.255       .  A
C147        O148   1.269       .  A
C147        C364   1.479       .  S
O148       Cr153   2.037       .  S
O149       Cr153   1.976       .  S
O149        C150   1.263       .  A
C150        C520   1.490       .  S
Cr151       O154   1.765       .  S
Cr152       O154   1.763       .  S
Cr153       O154   1.775       .  S
O155       Cr173   1.963       .  S
O155        C163   1.259       .  A
O156       Cr173   2.025       .  S
O156        C157   1.269       .  A
C157        O854   1.254   1_554  A
C157        C337   1.469       .  S
O158       Cr174   1.963       .  S
O158        C853   1.255       .  A
O159       Cr174   2.008       .  S
O159        C160   1.266       .  A
C160        O161   1.261       .  A
C160        C481   1.482       .  S
O161       Cr175   1.972       .  S
O162       Cr871   2.036   1_554  S
O162        C163   1.270       .  A
C163        C373   1.478       .  S
O164       Cr173   2.017       .  S
O164        C868   1.269   1_554  A
O165       Cr869   1.977       .  S
O165        C166   1.259       .  A
C166        O167   1.267       .  A
C166        C349   1.481       .  S
O167       Cr174   2.002       .  S
O168       Cr174   1.952       .  S
O168        C169   1.254       .  A
C169        O170   1.269       .  A
C169        C361   1.474       .  S
O170       Cr175   2.034       .  S
O171       Cr175   1.974       .  S
O171        C172   1.260       .  A
C172        O860   1.269       .  A
C172        C448   1.480       .  S
Cr173       O861   1.979   1_554  S
Cr173       O872   1.764   1_554  S
Cr174       O176   1.762       .  S
Cr175       O858   2.036       .  S
Cr175       O176   1.771       .  S
O176       Cr869   1.764       .  S
O177       Cr195   1.959       .  S
O177        C185   1.256   1_554  A
O178       Cr195   2.021       .  S
O178        C179   1.272       .  A
C179        O180   1.259       .  A
C179        C340   1.478       .  S
O180       Cr196   1.965       .  S
O181       Cr196   2.012       .  S
O181        C182   1.265       .  A
C182        O183   1.260       .  A
C182        C637   1.479       .  S
O183       Cr197   1.977       .  S
O184       Cr197   2.041       .  S
O184        C185   1.272   1_554  A
C185        C997   1.479       .  S
O186       Cr195   2.015       .  S
O186        C194   1.267       .  A
O187       Cr195   1.978       .  S
O187        C188   1.257       .  A
C188        O189   1.264       .  A
C188        C325   1.476       .  S
O189       Cr196   2.003       .  S
O190       Cr196   1.950       .  S
O190        C191   1.256       .  A
C191        O192   1.273       .  A
C191        C313   1.483       .  S
O192       Cr197   2.043       .  S
O193       Cr197   1.970       .  S
O193        C194   1.258       .  A
C194        C436   1.475       .  S
Cr195       O198   1.764       .  S
Cr196       O198   1.762       .  S
Cr197       O198   1.768       .  S
O199       Cr217   1.963       .  S
O199        C207   1.258       .  A
O200       Cr217   2.018       .  S
O200        C201   1.268       .  A
C201        O202   1.256       .  A
C201        C292   1.481       .  S
O202       Cr218   1.966       .  S
O203       Cr218   2.021       .  S
O203        C204   1.267       .  A
C204        O205   1.259       .  A
C204        C412   1.479       .  S
O205       Cr219   1.969       .  S
O206       Cr219   2.033       .  S
O206        C207   1.269       .  A
C207        C304   1.476       .  S
O208       Cr217   2.017       .  S
O208        C216   1.268       .  A
O209       Cr217   1.975       .  S
O209        C210   1.260       .  A
C210        O211   1.271       .  A
C210        C388   1.489       .  S
O211       Cr218   2.026       .  S
O212       Cr218   1.955       .  S
O212        C213   1.257       .  A
C213        O214   1.270       .  A
C213        C316   1.478       .  S
O214       Cr219   2.040       .  S
O215       Cr219   1.966       .  S
O215        C216   1.260       .  A
C216        C592   1.476       .  S
Cr217       O220   1.769       .  S
Cr218       O220   1.764       .  S
Cr219       O220   1.776       .  S
O221       Cr239   1.953       .  S
O221        C229   1.256       .  A
O222       Cr239   1.996       .  S
O222        C223   1.266       .  A
C223        O224   1.261       .  A
C223        C328   1.481       .  S
O224       Cr240   1.981       .  S
O225       Cr240   2.008       .  S
O225        C226   1.263       .  A
C226        O227   1.259       .  A
C226        C532   1.480       .  S
O227       Cr241   1.978       .  S
O228       Cr241   2.034       .  S
O228        C229   1.270       .  A
C229        C277   1.477       .  S
O230       Cr239   2.002       .  S
O230        C238   1.264       .  A
O231       Cr239   1.979       .  S
O231        C232   1.260       .  A
C232        O233   1.266       .  A
C232        C400   1.487       .  S
O233       Cr240   2.005       .  S
O234       Cr240   1.958       .  S
O234        C235   1.259       .  A
C235        O236   1.272       .  A
C235        C265   1.475       .  S
O236       Cr241   2.039       .  S
O237       Cr241   1.975       .  S
O237        C238   1.261       .  A
C238        C628   1.479       .  S
Cr239       O242   1.765       .  S
Cr240       O242   1.766       .  S
Cr241       O242   1.771       .  S
O243       Cr261   1.956       .  S
O243        C251   1.260       .  A
O244       Cr261   2.002       .  S
O244        C245   1.264       .  A
C245        O246   1.259       .  A
C245        C289   1.485       .  S
O246       Cr262   1.981       .  S
O247       Cr262   2.001       .  S
O247        C248   1.263       .  A
C248        O249   1.259       .  A
C248        C496   1.471       .  S
O249       Cr263   1.970       .  S
O250       Cr263   2.038       .  S
O250        C251   1.274       .  A
C251        C268   1.471       .  S
O252       Cr261   1.997       .  S
O252        C260   1.260       .  A
O253       Cr261   1.974       .  S
O253        C254   1.261       .  A
C254        O255   1.268       .  A
C254        C352   1.479       .  S
O255       Cr262   2.007       .  S
O256       Cr262   1.956       .  S
O256        C257   1.258       .  A
C257        O258   1.270       .  A
C257        C280   1.480       .  S
O258       Cr263   2.031       .  S
O259       Cr263   1.974       .  S
O259        C260   1.257       .  A
C260        C580   1.484       .  S
Cr261       O264   1.771       .  S
Cr262       O264   1.768       .  S
Cr263       O264   1.775       .  S
C265        C266   1.407       .  A
C265        C270   1.408       .  A
C266        C267   1.407       .  A
C266        H271   1.086       .  S
C267        C268   1.408       .  A
C267        C274   1.444       .  S
C268        C269   1.403       .  A
C269        C270   1.398       .  A
C269        H272   1.086       .  S
C270        C273   1.445       .  S
C273        N275   1.157       .  T
C274        N276   1.157       .  T
C277        C278   1.406       .  A
C277        C282   1.412       .  A
C278        C279   1.408       .  A
C278        H283   1.085       .  S
C279        C976   1.410   1_554  A
C279        C982   1.441   1_554  S
C280        C975   1.411       .  A
C280        C977   1.403       .  A
C281        C282   1.395       .  A
C281        C976   1.402   1_554  A
C281        H980   1.085   1_554  S
C282        C285   1.446       .  S
H284        C977   1.085       .  S
C285        N287   1.157       .  T
C286        C975   1.440       .  S
C286        N288   1.156       .  T
C289        C290   1.407       .  A
C289        C294   1.413       .  A
C290        C291   1.395       .  A
C290        H295   1.085       .  S
C291        C292   1.411       .  A
C291        C298   1.443       .  S
C292        C293   1.407       .  A
C293        C294   1.404       .  A
C293        H296   1.084       .  S
C294        C297   1.444       .  S
C297        N299   1.157       .  T
C298        N300   1.157       .  T
C301        C881   1.478       .  S
C301        C302   1.405       .  A
C301        C306   1.413       .  A
C302        C303   1.410       .  A
C302        H307   1.083       .  S
C303        C304   1.413       .  A
C303        C310   1.444       .  S
C304        C305   1.399       .  A
C305        C306   1.395       .  A
C305        H308   1.085       .  S
C306        C309   1.444       .  S
C309        N311   1.157       .  T
C310        N312   1.157       .  T
C313        C314   1.409       .  A
C313        C318   1.414       .  A
C314        C315   1.411       .  A
C314        H319   1.085       .  S
C315        C316   1.409       .  A
C315        C322   1.441       .  S
C316        C317   1.401       .  A
C317        C318   1.392       .  A
C317        H320   1.087       .  S
C318        C321   1.446       .  S
C321        N323   1.157       .  T
C322        N324   1.157       .  T
C325        C326   1.406       .  A
C325        C330   1.410       .  A
C326        C327   1.406       .  A
C326        H331   1.085       .  S
C327        C328   1.415       .  A
C327        C334   1.444       .  S
C328        C329   1.403       .  A
C329        C330   1.389       .  A
C329        H332   1.085       .  S
C330        C333   1.443       .  S
C333        N335   1.156       .  T
C334        N336   1.157       .  T
C337        C338   1.399       .  A
C337       C1038   1.411   1_554  A
C338        C339   1.402       .  A
C338        H343   1.085       .  S
C339        C340   1.417       .  A
C339        C346   1.444       .  S
C340        C341   1.401       .  A
C341       C1038   1.397   1_554  A
C341       H1040   1.085   1_554  S
C342       C1033   1.412       .  A
C342       C1037   1.399       .  A
C342        C345   1.444       .  S
H344       C1037   1.085       .  S
C345        N347   1.157       .  T
C346        N348   1.157       .  T
C349        C350   1.401       .  A
C349        C354   1.414       .  A
C350        C351   1.390       .  A
C350        H355   1.082       .  S
C351        C352   1.414       .  A
C351        C358   1.446       .  S
C352        C353   1.407       .  A
C353        C354   1.405       .  A
C353        H356   1.085       .  S
C354        C357   1.444       .  S
C357        N359   1.157       .  T
C358        N360   1.157       .  T
C361        C362   1.401       .  A
C361        C366   1.413       .  A
C362        C363   1.407       .  A
C362        H367   1.085       .  S
C363        C364   1.415       .  A
C363        C370   1.441       .  S
C364        C365   1.401       .  A
C365        C366   1.393       .  A
C365        H368   1.086       .  S
C366        C369   1.447       .  S
C369        N371   1.158       .  T
C370        N372   1.156       .  T
C373        C374   1.409       .  A
C373        C378   1.409       .  A
C374        C375   1.410       .  A
C374        H379   1.077       .  S
C375        C376   1.409       .  A
C375        C382   1.443       .  S
C376        C377   1.402       .  A
C377        C378   1.396       .  A
C377        H380   1.073       .  S
C378        C381   1.445       .  S
C381        N383   1.157       .  T
C382        N384   1.157       .  T
C385        C386   1.402       .  A
C385        C390   1.411       .  A
C386        C387   1.406       .  A
C386        H391   1.084       .  S
C387        C388   1.418       .  A
C387        C394   1.444       .  S
C388        C389   1.405       .  A
C389        C390   1.403       .  A
C389        H392   1.084       .  S
C390        C393   1.444       .  S
C393        N395   1.157       .  T
C394        N396   1.157       .  T
C397        C398   1.399       .  A
C397        C402   1.410       .  A
C398        C399   1.394       .  A
C398        H403   1.085       .  S
C399        C400   1.419       .  A
C399        C406   1.446       .  S
C400        C401   1.409       .  A
C401        C402   1.405       .  A
C401        H404   1.085       .  S
C402        C405   1.444       .  S
C405        N407   1.157       .  T
C406        N408   1.158       .  T
C409        C410   1.403       .  A
C409        C414   1.414       .  A
C410        C411   1.398       .  A
C410        H415   1.084       .  S
C411        C412   1.413       .  A
C411        C418   1.446       .  S
C412        C413   1.404       .  A
C413        C414   1.407       .  A
C413        H416   1.084       .  S
C414        C417   1.444       .  S
C417        N419   1.157       .  T
C418        N420   1.157       .  T
C421        C422   1.405       .  A
C421        C426   1.415       .  A
C422        C423   1.406   1_545  A
C422        H427   1.085       .  S
C423        C424   1.413       .  A
C423        C430   1.444       .  S
C424        C425   1.401       .  A
C425        C426   1.399   1_565  A
C425        H428   1.086       .  S
C426        C429   1.445       .  S
C429        N431   1.157       .  T
C430        N432   1.157       .  T
C433        C434   1.405       .  A
C433        C438   1.415       .  A
C434        C435   1.399       .  A
C434        H439   1.085       .  S
C435        C436   1.410       .  A
C435        C442   1.442       .  S
C436        C437   1.401       .  A
C437        C438   1.399       .  A
C437        H440   1.086   1_554  S
C438       C1137   1.443   1_554  S
C441       C1134   1.442       .  S
C441        N443   1.157       .  T
C442        N444   1.156       .  T
C445        C450   1.413       .  A
C445       C1142   1.408   1_554  A
C446        C447   1.402   1_565  A
C446       C1141   1.408       .  A
C446        H451   1.082       .  S
C447        C448   1.411       .  A
C447        C454   1.445       .  S
C448       C1145   1.405       .  A
C449        C450   1.401   1_545  A
C449       C1144   1.405   1_554  A
C449        H452   1.080       .  S
C450        C453   1.445       .  S
C453        N455   1.157       .  T
C454        N456   1.157       .  T
C457        C458   1.409       .  A
C457        C462   1.411       .  A
C458        C459   1.412       .  A
C458        H463   1.084       .  S
C459        C460   1.411       .  A
C459        C466   1.442       .  S
C460        C461   1.400       .  A
C461        C462   1.392       .  A
C461        H464   1.085       .  S
C462        C465   1.443       .  S
C465        N467   1.156       .  T
C466        N468   1.157       .  T
C469        C470   1.402       .  A
C469        C474   1.415       .  A
C470        C471   1.396       .  A
C470        H475   1.085       .  S
C471        C472   1.411       .  A
C471        C478   1.446       .  S
C472        C473   1.405       .  A
C473        C474   1.411       .  A
C473        H476   1.084       .  S
C474        C477   1.442       .  S
C477        N479   1.157       .  T
C478        N480   1.157       .  T
C481        C482   1.410       .  A
C481        C486   1.414       .  A
C482        C483   1.401   1_655  A
C482        H487   1.085       .  S
C483        C484   1.406       .  A
C483        C490   1.444       .  S
C484        C485   1.402       .  A
C485        C486   1.397   1_455  A
C485        H488   1.086       .  S
C486       C1185   1.444       .  S
C489       C1182   1.444   1_554  S
C489        N491   1.157       .  T
C490        N492   1.157       .  T
C493        C494   1.405       .  A
C493        C498   1.417       .  A
C494        C495   1.397       .  A
C494        H499   1.085       .  S
C495        C496   1.410       .  A
C495        C502   1.445       .  S
C496        C497   1.401       .  A
C497        C498   1.403       .  A
C497        H500   1.085       .  S
C498        C501   1.444       .  S
C501        N503   1.157       .  T
C502        N504   1.157       .  T
C505        C506   1.407       .  A
C505        C510   1.418       .  A
C506        C507   1.405       .  A
C506        H511   1.084       .  S
C507        C508   1.413       .  A
C507        C514   1.444       .  S
C508        C509   1.401       .  A
C509        C510   1.394       .  A
C509        H512   1.085       .  S
C510        C513   1.446       .  S
C513        N515   1.157       .  T
C514       N1212   1.158       .  T
N516       C1210   1.157       .  T
C517        C518   1.397       .  A
C517        C522   1.409       .  A
C518        C519   1.402   1_455  A
C518        H523   1.086       .  S
C519        C520   1.422       .  A
C519        C526   1.443       .  S
C520        C521   1.406       .  A
C521        C522   1.396   1_655  A
C521        H524   1.085       .  S
C522        C525   1.443       .  S
C525        N527   1.157       .  T
C526        N528   1.157       .  T
C529        C530   1.405       .  A
C529        C534   1.412       .  A
C530        C531   1.397       .  A
C530        H535   1.083       .  S
C531        C532   1.410       .  A
C531        C538   1.443       .  S
C532        C533   1.407       .  A
C533        C534   1.403       .  A
C533        H536   1.084       .  S
C534        C537   1.444       .  S
C537        N539   1.157       .  T
C538        N540   1.157       .  T
C541        C542   1.403       .  A
C541        C546   1.413       .  A
C542        C543   1.408       .  A
C542        H547   1.084       .  S
C543        C544   1.414       .  A
C543        C550   1.443       .  S
C544        C545   1.402       .  A
C545        C546   1.398       .  A
C545        H548   1.085       .  S
C546        C549   1.445       .  S
C549        N551   1.157       .  T
C550        N552   1.157       .  T
C553        C554   1.405       .  A
C553        C558   1.408       .  A
C554        C555   1.405       .  A
C554        H559   1.084       .  S
C555        C556   1.409       .  A
C555        C562   1.443       .  S
C556        C777   1.475       .  S
C556        C557   1.404       .  A
C557        C558   1.401       .  A
C557        H560   1.084       .  S
C558        C561   1.444       .  S
C561        N563   1.157       .  T
C562        N564   1.157       .  T
C565        C566   1.402       .  A
C565        C570   1.414       .  A
C566        C567   1.395       .  A
C566        H571   1.085       .  S
C567        C568   1.419       .  A
C567        C574   1.446       .  S
C568        C569   1.407       .  A
C569        C570   1.404       .  A
C569        H572   1.085       .  S
C570        C573   1.444       .  S
C573        N575   1.157       .  T
C574        N576   1.158       .  T
C577        C578   1.397       .  A
C577        C582   1.403       .  A
C578        C579   1.394   1_565  A
C578        H583   1.086       .  S
C579        C580   1.416       .  A
C579        C586   1.443       .  S
C580        C581   1.412       .  A
C581        C582   1.400   1_545  A
C581        H584   1.085       .  S
C582        C585   1.444       .  S
C585        N587   1.157       .  T
C586        N588   1.157       .  T
C589        C590   1.402       .  A
C589        C594   1.412       .  A
C590        C591   1.396   1_455  A
C590        H595   1.085       .  S
C591        C592   1.412       .  A
C591        C598   1.445       .  S
C592        C593   1.404       .  A
C593        C594   1.404   1_655  A
C593        H596   1.085       .  S
C594        C597   1.444       .  S
C597        N599   1.157       .  T
C598        N600   1.157       .  T
C601        C602   1.402       .  A
C601        C606   1.412       .  A
C602        C603   1.393       .  A
C602        H607   1.087       .  S
C603        C604   1.417       .  A
C603        C610   1.447       .  S
C604        C605   1.405       .  A
C605        C606   1.404       .  A
C605        H608   1.085       .  S
C606        C609   1.443       .  S
C609        N611   1.157       .  T
C610        N612   1.158       .  T
C613        C614   1.405       .  A
C613        C618   1.415       .  A
C614        C615   1.406       .  A
C614        H619   1.085       .  S
C615        C616   1.416       .  A
C615        C622   1.442       .  S
C616        C617   1.406       .  A
C617        C618   1.397       .  A
C617        H620   1.085       .  S
C618        C621   1.445       .  S
C621        N623   1.157       .  T
C622        N624   1.157       .  T
C625        C626   1.404       .  A
C625        C630   1.412       .  A
C626        C627   1.405   1_565  A
C626        H631   1.084       .  S
C627        C628   1.414       .  A
C627        C634   1.444       .  S
C628        C629   1.402       .  A
C629        C630   1.396   1_545  A
C629        H632   1.085       .  S
C630        C633   1.445       .  S
C633        N635   1.157       .  T
C634        N636   1.157       .  T
C637        C638   1.405       .  A
C637        C642   1.410       .  A
C638        C639   1.402   1_655  A
C638        H643   1.086       .  S
C639        C640   1.414       .  A
C639        C646   1.444       .  S
C640        C641   1.407       .  A
C641        C642   1.400   1_455  A
C641        H644   1.086       .  S
C642        C645   1.445       .  S
C645        N647   1.157       .  T
C646        N648   1.157       .  T
C649       C1346   1.403   1_554  A
C649       C1350   1.410   1_554  A
C650        C651   1.400       .  A
C650       C1345   1.404       .  A
C650       H1351   1.086       .  S
C651        C652   1.409       .  A
C651        C658   1.445       .  S
C652        C653   1.405       .  A
C653        C654   1.407       .  A
C653        H656   1.086       .  S
C654       C1345   1.410       .  A
C654       C1353   1.443       .  S
H655       C1346   1.086   1_554  S
C657       C1350   1.443   1_554  S
C657        N659   1.157       .  T
C658        N660   1.157       .  T
C661        C662   1.404       .  A
C661        C666   1.415       .  A
C662        C663   1.412       .  A
C662        H667   1.085       .  S
C663        C664   1.417       .  A
C663        C670   1.443       .  S
C664        C665   1.401       .  A
C665        C666   1.396       .  A
C665        H668   1.086       .  S
C666        C669   1.446       .  S
C669        N671   1.157       .  T
C670        N672   1.157       .  T
C673        C674   1.402       .  A
C673        C678   1.417       .  A
C674        C675   1.396       .  A
C674        H679   1.086       .  S
C675        C676   1.417       .  A
C675        C682   1.445       .  S
C676        C677   1.407       .  A
C677        C678   1.407       .  A
C677        H680   1.085       .  S
C678        C681   1.444       .  S
C681        N683   1.158       .  T
C682        N684   1.157       .  T
C685        C686   1.401       .  A
C685        C690   1.414       .  A
C686        C687   1.398       .  A
C686        H691   1.085       .  S
C687        C688   1.420       .  A
C687        C694   1.445       .  S
C688        C689   1.408       .  A
C689        C690   1.407       .  A
C689        H692   1.084       .  S
C690        C693   1.444       .  S
C693        N695   1.157       .  T
C694        N696   1.157       .  T
O697       Cr715   1.959       .  S
O697        C705   1.259       .  A
O698       Cr715   2.025       .  S
O698        C699   1.269       .  A
C699        O700   1.255       .  A
C699       C1381   1.485       .  S
O700       Cr716   1.970       .  S
O701       Cr716   2.009       .  S
O701        C702   1.265       .  A
C702        O703   1.259       .  A
C702       C1321   1.476       .  S
O703       Cr717   1.971       .  S
O704       Cr717   2.044       .  S
O704        C705   1.274       .  A
C705       C1345   1.476       .  S
O706       Cr715   2.013       .  S
O706        C714   1.266       .  A
O707       Cr715   1.973       .  S
O707        C708   1.259       .  A
C708        O709   1.271       .  A
C708       C1369   1.486       .  S
O709       Cr716   2.018       .  S
O710       Cr716   1.954       .  S
O710        C711   1.256       .  A
C711        O712   1.273       .  A
C711       C1357   1.485       .  S
O712       Cr717   2.046       .  S
O713       Cr717   1.982       .  S
O713        C714   1.260       .  A
C714       C1336   1.486       .  S
Cr715       O718   1.767       .  S
Cr716       O718   1.763       .  S
Cr717       O718   1.773       .  S
O719       Cr737   1.971       .  S
O719        C727   1.260       .  A
O720       Cr737   2.010       .  S
O720        C721   1.270       .  A
C721        O722   1.263       .  A
C721       C1312   1.492       .  S
O722       Cr738   1.982       .  S
O723       Cr738   1.998       .  S
O723        C724   1.261       .  A
C724        O725   1.256       .  A
C724       C1273   1.459       .  S
O725       Cr739   1.973       .  S
O726       Cr739   2.029       .  S
O726        C727   1.268       .  A
C727       C1360   1.486       .  S
O728       Cr737   2.010       .  S
O728        C736   1.266       .  A
O729       Cr737   1.982       .  S
O729        C730   1.260       .  A
C730        O731   1.261       .  A
C730       C1300   1.481       .  S
O731       Cr738   1.992       .  S
O732       Cr738   1.964       .  S
O732        C733   1.259       .  A
C733        O734   1.271       .  A
C733       C1348   1.477       .  S
O734       Cr739   2.038       .  S
O735       Cr739   1.964       .  S
O735        C736   1.259       .  A
C736       C1285   1.475       .  S
Cr737       O740   1.766       .  S
Cr738       O740   1.769       .  S
Cr739       O740   1.775       .  S
O741       Cr759   1.961       .  S
O741        C749   1.259       .  A
O742       Cr759   2.007       .  S
O742        C743   1.264       .  A
C743        O744   1.260       .  A
C743       C1372   1.487       .  S
O744       Cr760   1.983       .  S
O745       Cr760   2.012       .  S
O745        C746   1.265       .  A
C746        O747   1.259       .  A
C746       C1213   1.470       .  S
O747       Cr761   1.974       .  S
O748       Cr761   2.041       .  S
O748        C749   1.272       .  A
C749       C1249   1.475       .  S
O750       Cr759   2.004       .  S
O750        C758   1.264       .  A
O751       Cr759   1.973       .  S
O751        C752   1.260       .  A
C752        O753   1.271       .  A
C752       C1261   1.482       .  S
O753       Cr760   2.016       .  S
O754       Cr760   1.960       .  S
O754        C755   1.257       .  A
C755        O756   1.270       .  A
C755       C1237   1.481       .  S
O756       Cr761   2.033       .  S
O757       Cr761   1.980       .  S
O757        C758   1.259       .  A
C758       C1225   1.482       .  S
Cr759       O762   1.765       .  S
Cr760       O762   1.767       .  S
Cr761       O762   1.774       .  S
O763       Cr781   1.960       .  S
O763        C771   1.257       .  A
O764       Cr781   2.005       .  S
O764        C765   1.267       .  A
C765        O766   1.261       .  A
C765       C1297   1.480       .  S
O766       Cr782   1.981       .  S
O767       Cr782   2.000       .  S
O767        C768   1.262       .  A
C768        O769   1.259       .  A
C768       C1180   1.472       .  S
O769       Cr783   1.982       .  S
O770       Cr783   2.036       .  S
O770        C771   1.271       .  A
C771       C1240   1.481       .  S
O772       Cr781   2.008       .  S
O772        C780   1.265       .  A
O773       Cr781   1.981       .  S
O773        C774   1.261       .  A
C774        O775   1.264       .  A
C774       C1201   1.485       .  S
O775       Cr782   2.001       .  S
O776       Cr782   1.963       .  S
O776        C777   1.259   1_556  A
C777        O778   1.273   1_554  A
O778       Cr783   2.039       .  S
O779       Cr783   1.972       .  S
O779        C780   1.260       .  A
C780       C1189   1.483       .  S
Cr781       O784   1.766       .  S
Cr782       O784   1.766       .  S
Cr783       O784   1.773       .  S
O785       Cr803   1.955       .  S
O785        C793   1.257       .  A
O786       Cr803   2.010       .  S
O786        C787   1.268   1_556  A
C787       C1204   1.480   1_554  S
O788       Cr804   1.979       .  S
O789       Cr804   2.012       .  S
O789        C790   1.266       .  A
C790        O791   1.259       .  A
C790       C1129   1.484       .  S
O791       Cr805   1.976       .  S
O792        C793   1.271       .  A
C793       C1153   1.483       .  S
O794       Cr803   2.013       .  S
O795        C796   1.262       .  A
C796        O797   1.268       .  A
C796       C1384   1.493       .  S
O797       Cr804   2.013       .  S
O798       Cr804   1.962       .  S
O798        C799   1.259       .  A
C799        O800   1.272       .  A
C799       C1165   1.482       .  S
O800       Cr805   2.040       .  S
O801       Cr805   1.977       .  S
O801        C802   1.261       .  A
C802       C1141   1.483       .  S
Cr804       O806   1.764       .  S
Cr805       O806   1.773       .  S
O807       Cr825   1.956       .  S
O807        C815   1.258       .  A
O808       Cr825   2.001       .  S
O808        C809   1.264       .  A
C809        O810   1.261       .  A
C809       C1264   1.488       .  S
O810       Cr826   1.983       .  S
O811       Cr826   2.003       .  S
O811        C812   1.262       .  A
C812        O813   1.260       .  A
C812       C1105   1.482       .  S
O813       Cr827   1.979       .  S
O814       Cr827   2.039       .  S
O814        C815   1.273       .  A
C815       C1168   1.480       .  S
O816       Cr825   1.997       .  S
O816        C824   1.260       .  A
O817       Cr825   1.981       .  S
O817        C818   1.261       .  A
C818        O819   1.267       .  A
C818       C1309   1.486       .  S
O819       Cr826   2.014       .  S
O820       Cr826   1.955       .  S
O820        C821   1.260       .  A
C821        O822   1.273       .  A
C821       C1156   1.481       .  S
O822       Cr827   2.038       .  S
O823       Cr827   1.982       .  S
O823        C824   1.260       .  A
C824       C1120   1.480       .  S
Cr825       O828   1.769       .  S
Cr826       O828   1.772       .  S
Cr827       O828   1.782       .  S
O829       Cr847   1.964       .  S
O829        C837   1.258       .  A
O830       Cr847   2.009       .  S
O830        C831   1.266       .  A
C831        O832   1.257       .  A
C831       C1093   1.478       .  S
O832       Cr848   1.974       .  S
O833       Cr848   2.026       .  S
O833        C834   1.270       .  A
C834        O835   1.260       .  A
C834       C1117   1.485       .  S
O835       Cr849   1.969       .  S
O836       Cr849   2.035       .  S
O836        C837   1.270       .  A
C837       C1072   1.473       .  S
O838       Cr847   2.012       .  S
O838        C846   1.266       .  A
O839       Cr847   1.972       .  S
O839        C840   1.259       .  A
C840        O841   1.271       .  A
C840       C1081   1.477       .  S
O841       Cr848   2.026       .  S
O842       Cr848   1.952       .  S
O842        C843   1.255       .  A
C843        O844   1.269       .  A
C843       C1060   1.478       .  S
O844       Cr849   2.034       .  S
O845       Cr849   1.976       .  S
O845        C846   1.262       .  A
C846       C1216   1.492       .  S
Cr847       O850   1.765       .  S
Cr848       O850   1.763       .  S
Cr849       O850   1.774       .  S
O851       Cr869   1.963       .  S
O851        C859   1.259       .  A
O852       Cr869   2.025       .  S
O852        C853   1.269       .  A
C853       C1033   1.471       .  S
O854       Cr870   1.960       .  S
O855       Cr870   2.009       .  S
O855        C856   1.266       .  A
C856        O857   1.261       .  A
C856       C1177   1.482       .  S
O857       Cr871   1.973       .  S
O858        C859   1.270       .  A
C859       C1069   1.477       .  S
O860       Cr869   2.018       .  S
O861        C862   1.259       .  A
C862        O863   1.267       .  A
C862       C1045   1.483       .  S
O863       Cr870   2.003       .  S
O864       Cr870   1.951       .  S
O864        C865   1.254       .  A
C865        O866   1.269       .  A
C865       C1057   1.473       .  S
O866       Cr871   2.035       .  S
O867       Cr871   1.975       .  S
O867        C868   1.260       .  A
C868       C1144   1.480       .  S
Cr870       O872   1.761       .  S
Cr871       O872   1.771       .  S
O873       Cr891   1.959       .  S
O873        C881   1.257       .  A
O874       Cr891   2.024       .  S
O874        C875   1.272       .  A
C875        O876   1.260       .  A
C875       C1036   1.480       .  S
O876       Cr892   1.966       .  S
O877       Cr892   2.011       .  S
O877        C878   1.265       .  A
C878        O879   1.261       .  A
C878       C1333   1.479       .  S
O879       Cr893   1.978       .  S
O880       Cr893   2.039       .  S
O880        C881   1.271       .  A
O882       Cr891   2.017       .  S
O882        C890   1.267       .  A
O883       Cr891   1.977       .  S
O883        C884   1.257       .  A
C884        O885   1.264       .  A
C884       C1021   1.474       .  S
O885       Cr892   2.002       .  S
O886       Cr892   1.953       .  S
O886        C887   1.257       .  A
C887        O888   1.272       .  A
C887       C1009   1.483       .  S
O888       Cr893   2.041       .  S
O889       Cr893   1.972       .  S
O889        C890   1.258       .  A
C890       C1132   1.476       .  S
Cr891       O894   1.765       .  S
Cr892       O894   1.763       .  S
Cr893       O894   1.769       .  S
O895       Cr913   1.963       .  S
O895        C903   1.258       .  A
O896       Cr913   2.018       .  S
O896        C897   1.268       .  A
C897        O898   1.256       .  A
C897        C988   1.480       .  S
O898       Cr914   1.964       .  S
O899       Cr914   2.021       .  S
O899        C900   1.267       .  A
C900        O901   1.259       .  A
C900       C1108   1.479       .  S
O901       Cr915   1.969       .  S
O902       Cr915   2.034       .  S
O902        C903   1.269       .  A
C903       C1000   1.477       .  S
O904       Cr913   2.015       .  S
O904        C912   1.268       .  A
O905       Cr913   1.973       .  S
O905        C906   1.259       .  A
C906        O907   1.271       .  A
C906       C1084   1.486       .  S
O907       Cr914   2.024       .  S
O908       Cr914   1.954       .  S
O908        C909   1.256       .  A
C909        O910   1.270       .  A
C909       C1012   1.478       .  S
O910       Cr915   2.041       .  S
O911       Cr915   1.967       .  S
O911        C912   1.260       .  A
C912       C1288   1.475       .  S
Cr913       O916   1.768       .  S
Cr914       O916   1.764       .  S
Cr915       O916   1.775       .  S
O917       Cr935   1.953       .  S
O917        C925   1.256       .  A
O918       Cr935   1.995       .  S
O918        C919   1.266       .  A
C919        O920   1.261       .  A
C919       C1024   1.480       .  S
O920       Cr936   1.979       .  S
O921       Cr936   2.008       .  S
O921        C922   1.263       .  A
C922        O923   1.259       .  A
C922       C1228   1.480       .  S
O923       Cr937   1.980       .  S
O924       Cr937   2.034       .  S
O924        C925   1.270       .  A
C925        C973   1.478       .  S
O926       Cr935   2.001       .  S
O926        C934   1.263       .  A
O927       Cr935   1.981       .  S
O927        C928   1.261       .  A
C928        O929   1.266       .  A
C928       C1096   1.488       .  S
O929       Cr936   2.007       .  S
O930       Cr936   1.957       .  S
O930        C931   1.259       .  A
C931        O932   1.273       .  A
C931        C961   1.473       .  S
O932       Cr937   2.039       .  S
O933       Cr937   1.975       .  S
O933        C934   1.261       .  A
C934       C1324   1.478       .  S
Cr935       O938   1.765       .  S
Cr936       O938   1.766       .  S
Cr937       O938   1.772       .  S
O939       Cr957   1.958       .  S
O939        C947   1.260       .  A
O940       Cr957   2.002       .  S
O940        C941   1.263       .  A
C941        O942   1.258       .  A
C941        C985   1.485       .  S
O942       Cr958   1.981       .  S
O943       Cr958   2.004       .  S
O943        C944   1.264       .  A
C944        O945   1.259       .  A
C944       C1192   1.475       .  S
O945       Cr959   1.970       .  S
O946       Cr959   2.034       .  S
O946        C947   1.273       .  A
C947        C964   1.470       .  S
O948       Cr957   1.996       .  S
O948        C956   1.260       .  A
O949       Cr957   1.975       .  S
O949        C950   1.261       .  A
C950        O951   1.269       .  A
C950       C1048   1.480       .  S
O951       Cr958   2.009       .  S
O952       Cr958   1.956       .  S
O952        C953   1.257       .  A
C953        O954   1.269       .  A
C953        C976   1.478       .  S
O954       Cr959   2.029       .  S
O955       Cr959   1.975       .  S
O955        C956   1.257       .  A
C956       C1276   1.484       .  S
Cr957       O960   1.772       .  S
Cr958       O960   1.768       .  S
Cr959       O960   1.774       .  S
C961        C962   1.407       .  A
C961        C966   1.408       .  A
C962        C963   1.406       .  A
C962        H967   1.085       .  S
C963        C964   1.407       .  A
C963        C970   1.444       .  S
C964        C965   1.402       .  A
C965        C966   1.398       .  A
C965        H968   1.086       .  S
C966        C969   1.445       .  S
C969        N971   1.157       .  T
C970        N972   1.157       .  T
C973        C974   1.406       .  A
C973        C978   1.411       .  A
C974        C975   1.409       .  A
C974        H979   1.085       .  S
C977        C978   1.394       .  A
C978        C981   1.446       .  S
C981        N983   1.157       .  T
C982        N984   1.157       .  T
C985        C986   1.407       .  A
C985        C990   1.413       .  A
C986        C987   1.396       .  A
C986        H991   1.085       .  S
C987        C988   1.411       .  A
C987        C994   1.443       .  S
C988        C989   1.406       .  A
C989        C990   1.403       .  A
C989        H992   1.084       .  S
C990        C993   1.444       .  S
C993        N995   1.157       .  T
C994        N996   1.157       .  T
C997        C998   1.405       .  A
C997       C1002   1.413       .  A
C998        C999   1.411       .  A
C998       H1003   1.083       .  S
C999       C1000   1.414       .  A
C999       C1006   1.444       .  S
C1000      C1001   1.398       .  A
C1001      C1002   1.395       .  A
C1001      H1004   1.085       .  S
C1002      C1005   1.444       .  S
C1005      N1007   1.157       .  T
C1006      N1008   1.157       .  T
C1009      C1010   1.409       .  A
C1009      C1014   1.414       .  A
C1010      C1011   1.411       .  A
C1010      H1015   1.085       .  S
C1011      C1012   1.409       .  A
C1011      C1018   1.442       .  S
C1012      C1013   1.401       .  A
C1013      C1014   1.392       .  A
C1013      H1016   1.087       .  S
C1014      C1017   1.446       .  S
C1017      N1019   1.157       .  T
C1018      N1020   1.157       .  T
C1021      C1022   1.405       .  A
C1021      C1026   1.409       .  A
C1022      C1023   1.405       .  A
C1022      H1027   1.085       .  S
C1023      C1024   1.415       .  A
C1023      C1030   1.444       .  S
C1024      C1025   1.403       .  A
C1025      C1026   1.389       .  A
C1025      H1028   1.085       .  S
C1026      C1029   1.442       .  S
C1029      N1031   1.156       .  T
C1030      N1032   1.157       .  T
C1033      C1034   1.399       .  A
C1034      C1035   1.402       .  A
C1034      H1039   1.085       .  S
C1035      C1036   1.418       .  A
C1035      C1042   1.444       .  S
C1036      C1037   1.402       .  A
C1038      C1041   1.444       .  S
C1041      N1043   1.157       .  T
C1042      N1044   1.157       .  T
C1045      C1046   1.401       .  A
C1045      C1050   1.414       .  A
C1046      C1047   1.390       .  A
C1046      H1051   1.081       .  S
C1047      C1048   1.413       .  A
C1047      C1054   1.446       .  S
C1048      C1049   1.408       .  A
C1049      C1050   1.406       .  A
C1049      H1052   1.085       .  S
C1050      C1053   1.444       .  S
C1053      N1055   1.157       .  T
C1054      N1056   1.157       .  T
C1057      C1058   1.401       .  A
C1057      C1062   1.413       .  A
C1058      C1059   1.407       .  A
C1058      H1063   1.085       .  S
C1059      C1060   1.415       .  A
C1059      C1066   1.441       .  S
C1060      C1061   1.401       .  A
C1061      C1062   1.393       .  A
C1061      H1064   1.086       .  S
C1062      C1065   1.447       .  S
C1065      N1067   1.158       .  T
C1066      N1068   1.156       .  T
C1069      C1070   1.409       .  A
C1069      C1074   1.409       .  A
C1070      C1071   1.409       .  A
C1070      H1075   1.078       .  S
C1071      C1072   1.408       .  A
C1071      C1078   1.443       .  S
C1072      C1073   1.401       .  A
C1073      C1074   1.396       .  A
C1073      H1076   1.080       .  S
C1074      C1077   1.445       .  S
C1077      N1079   1.157       .  T
C1078      N1080   1.157       .  T
C1081      C1082   1.401       .  A
C1081      C1086   1.411       .  A
C1082      C1083   1.404       .  A
C1082      H1087   1.084       .  S
C1083      C1084   1.417       .  A
C1083      C1090   1.444       .  S
C1084      C1085   1.404       .  A
C1085      C1086   1.402       .  A
C1085      H1088   1.084       .  S
C1086      C1089   1.444       .  S
C1089      N1091   1.157       .  T
C1090      N1092   1.157       .  T
C1093      C1094   1.400       .  A
C1093      C1098   1.411       .  A
C1094      C1095   1.395       .  A
C1094      H1099   1.085       .  S
C1095      C1096   1.419       .  A
C1095      C1102   1.446       .  S
C1096      C1097   1.409       .  A
C1097      C1098   1.406       .  A
C1097      H1100   1.085       .  S
C1098      C1101   1.444       .  S
C1101      N1103   1.157       .  T
C1102      N1104   1.158       .  T
C1105      C1106   1.403       .  A
C1105      C1110   1.415       .  A
C1106      C1107   1.398       .  A
C1106      H1111   1.084       .  S
C1107      C1108   1.413       .  A
C1107      C1114   1.446       .  S
C1108      C1109   1.404       .  A
C1109      C1110   1.407       .  A
C1109      H1112   1.084       .  S
C1110      C1113   1.444       .  S
C1113      N1115   1.157       .  T
C1114      N1116   1.157       .  T
C1117      C1118   1.405       .  A
C1117      C1122   1.416       .  A
C1118      C1119   1.406   1_545  A
C1118      H1123   1.085       .  S
C1119      C1120   1.413       .  A
C1119      C1126   1.444       .  S
C1120      C1121   1.401       .  A
C1121      C1122   1.399   1_565  A
C1121      H1124   1.086       .  S
C1122      C1125   1.445       .  S
C1125      N1127   1.157       .  T
C1126      N1128   1.157       .  T
C1129      C1130   1.405       .  A
C1129      C1134   1.415       .  A
C1130      C1131   1.400       .  A
C1130      H1135   1.085       .  S
C1131      C1132   1.410       .  A
C1131      C1138   1.442       .  S
C1132      C1133   1.401       .  A
C1133      C1134   1.400       .  A
C1133      H1136   1.086       .  S
C1137      N1139   1.157       .  T
C1138      N1140   1.156       .  T
C1141      C1146   1.412       .  A
C1142      C1143   1.403   1_565  A
C1142      H1147   1.082       .  S
C1143      C1144   1.411       .  A
C1143      C1150   1.445       .  S
C1145      C1146   1.401   1_545  A
C1145      H1148   1.078       .  S
C1146      C1149   1.445       .  S
C1149      N1151   1.157       .  T
C1150      N1152   1.157       .  T
C1153      C1154   1.409       .  A
C1153      C1158   1.412       .  A
C1154      C1155   1.413       .  A
C1154      H1159   1.084       .  S
C1155      C1156   1.412       .  A
C1155      C1162   1.442       .  S
C1156      C1157   1.401       .  A
C1157      C1158   1.392       .  A
C1157      H1160   1.085       .  S
C1158      C1161   1.443       .  S
C1161      N1163   1.156       .  T
C1162      N1164   1.157       .  T
C1165      C1166   1.401       .  A
C1165      C1170   1.415       .  A
C1166      C1167   1.396       .  A
C1166      H1171   1.085       .  S
C1167      C1168   1.412       .  A
C1167      C1174   1.446       .  S
C1168      C1169   1.405       .  A
C1169      C1170   1.411       .  A
C1169      H1172   1.084       .  S
C1170      C1173   1.443       .  S
C1173      N1175   1.157       .  T
C1174      N1176   1.157       .  T
C1177      C1178   1.410       .  A
C1177      C1182   1.414       .  A
C1178      C1179   1.401   1_655  A
C1178      H1183   1.085       .  S
C1179      C1180   1.407       .  A
C1179      C1186   1.444       .  S
C1180      C1181   1.402       .  A
C1181      C1182   1.397   1_455  A
C1181      H1184   1.085       .  S
C1185      N1187   1.157       .  T
C1186      N1188   1.157       .  T
C1189      C1190   1.404       .  A
C1189      C1194   1.415       .  A
C1190      C1191   1.397       .  A
C1190      H1195   1.085       .  S
C1191      C1192   1.411       .  A
C1191      C1198   1.445       .  S
C1192      C1193   1.402       .  A
C1193      C1194   1.404       .  A
C1193      H1196   1.085       .  S
C1194      C1197   1.444       .  S
C1197      N1199   1.157       .  T
C1198      N1200   1.157       .  T
C1201      C1202   1.407       .  A
C1201      C1206   1.418       .  A
C1202      C1203   1.405       .  A
C1202      H1207   1.084       .  S
C1203      C1204   1.413       .  A
C1203      C1210   1.444       .  S
C1204      C1205   1.401       .  A
C1205      C1206   1.394       .  A
C1205      H1208   1.085       .  S
C1206      C1209   1.446       .  S
C1209      N1211   1.157       .  T
C1213      C1214   1.398       .  A
C1213      C1218   1.408       .  A
C1214      C1215   1.403   1_455  A
C1214      H1219   1.086       .  S
C1215      C1216   1.422       .  A
C1215      C1222   1.444       .  S
C1216      C1217   1.407       .  A
C1217      C1218   1.397   1_655  A
C1217      H1220   1.084       .  S
C1218      C1221   1.444       .  S
C1221      N1223   1.157       .  T
C1222      N1224   1.157       .  T
C1225      C1226   1.406       .  A
C1225      C1230   1.412       .  A
C1226      C1227   1.398       .  A
C1226      H1231   1.083       .  S
C1227      C1228   1.410       .  A
C1227      C1234   1.443       .  S
C1228      C1229   1.407       .  A
C1229      C1230   1.403       .  A
C1229      H1232   1.084       .  S
C1230      C1233   1.444       .  S
C1233      N1235   1.157       .  T
C1234      N1236   1.157       .  T
C1237      C1238   1.403       .  A
C1237      C1242   1.414       .  A
C1238      C1239   1.409       .  A
C1238      H1243   1.084       .  S
C1239      C1240   1.415       .  A
C1239      C1246   1.443       .  S
C1240      C1241   1.402       .  A
C1241      C1242   1.397       .  A
C1241      H1244   1.085       .  S
C1242      C1245   1.446       .  S
C1245      N1247   1.157       .  T
C1246      N1248   1.157       .  T
C1249      C1250   1.406       .  A
C1249      C1254   1.409       .  A
C1250      C1251   1.406       .  A
C1250      H1255   1.085       .  S
C1251      C1252   1.409       .  A
C1251      C1258   1.443       .  S
C1252      C1253   1.404       .  A
C1253      C1254   1.401       .  A
C1253      H1256   1.085       .  S
C1254      C1257   1.445       .  S
C1257      N1259   1.157       .  T
C1258      N1260   1.157       .  T
C1261      C1262   1.402       .  A
C1261      C1266   1.414       .  A
C1262      C1263   1.395       .  A
C1262      H1267   1.085       .  S
C1263      C1264   1.419       .  A
C1263      C1270   1.446       .  S
C1264      C1265   1.407       .  A
C1265      C1266   1.404       .  A
C1265      H1268   1.085       .  S
C1266      C1269   1.444       .  S
C1269      N1271   1.157       .  T
C1270      N1272   1.158       .  T
C1273      C1274   1.397       .  A
C1273      C1278   1.402       .  A
C1274      C1275   1.394   1_565  A
C1274      H1279   1.086       .  S
C1275      C1276   1.416       .  A
C1275      C1282   1.444       .  S
C1276      C1277   1.412       .  A
C1277      C1278   1.400   1_545  A
C1277      H1280   1.085       .  S
C1278      C1281   1.444       .  S
C1281      N1283   1.157       .  T
C1282      N1284   1.157       .  T
C1285      C1286   1.402       .  A
C1285      C1290   1.411       .  A
C1286      C1287   1.395   1_455  A
C1286      H1291   1.085       .  S
C1287      C1288   1.412       .  A
C1287      C1294   1.445       .  S
C1288      C1289   1.405       .  A
C1289      C1290   1.404   1_655  A
C1289      H1292   1.085       .  S
C1290      C1293   1.444       .  S
C1293      N1295   1.157       .  T
C1294      N1296   1.157       .  T
C1297      C1298   1.403       .  A
C1297      C1302   1.413       .  A
C1298      C1299   1.393       .  A
C1298      H1303   1.087       .  S
C1299      C1300   1.417       .  A
C1299      C1306   1.447       .  S
C1300      C1301   1.405       .  A
C1301      C1302   1.403       .  A
C1301      H1304   1.085       .  S
C1302      C1305   1.443       .  S
C1305      N1307   1.157       .  T
C1306      N1308   1.158       .  T
C1309      C1310   1.405       .  A
C1309      C1314   1.414       .  A
C1310      C1311   1.406       .  A
C1310      H1315   1.085       .  S
C1311      C1312   1.417       .  A
C1311      C1318   1.442       .  S
C1312      C1313   1.407       .  A
C1313      C1314   1.396       .  A
C1313      H1316   1.085       .  S
C1314      C1317   1.445       .  S
C1317      N1319   1.157       .  T
C1318      N1320   1.157       .  T
C1321      C1322   1.404       .  A
C1321      C1326   1.412       .  A
C1322      C1323   1.404   1_565  A
C1322      H1327   1.084       .  S
C1323      C1324   1.414       .  A
C1323      C1330   1.444       .  S
C1324      C1325   1.402       .  A
C1325      C1326   1.397   1_545  A
C1325      H1328   1.085       .  S
C1326      C1329   1.445       .  S
C1329      N1331   1.157       .  T
C1330      N1332   1.157       .  T
C1333      C1334   1.405       .  A
C1333      C1338   1.409       .  A
C1334      C1335   1.402   1_655  A
C1334      H1339   1.086       .  S
C1335      C1336   1.414       .  A
C1335      C1342   1.444       .  S
C1336      C1337   1.407       .  A
C1337      C1338   1.400   1_455  A
C1337      H1340   1.086       .  S
C1338      C1341   1.445       .  S
C1341      N1343   1.157       .  T
C1342      N1344   1.157       .  T
C1346      C1347   1.400       .  A
C1347      C1348   1.409       .  A
C1347      C1354   1.445       .  S
C1348      C1349   1.406       .  A
C1349      C1350   1.408       .  A
C1349      H1352   1.086       .  S
C1353      N1355   1.157       .  T
C1354      N1356   1.157       .  T
C1357      C1358   1.405       .  A
C1357      C1362   1.415       .  A
C1358      C1359   1.412       .  A
C1358      H1363   1.085       .  S
C1359      C1360   1.417       .  A
C1359      C1366   1.443       .  S
C1360      C1361   1.401       .  A
C1361      C1362   1.396       .  A
C1361      H1364   1.086       .  S
C1362      C1365   1.446       .  S
C1365      N1367   1.157       .  T
C1366      N1368   1.157       .  T
C1369      C1370   1.402       .  A
C1369      C1374   1.416       .  A
C1370      C1371   1.395       .  A
C1370      H1375   1.086       .  S
C1371      C1372   1.417       .  A
C1371      C1378   1.445       .  S
C1372      C1373   1.407       .  A
C1373      C1374   1.406       .  A
C1373      H1376   1.085       .  S
C1374      C1377   1.445       .  S
C1377      N1379   1.158       .  T
C1378      N1380   1.157       .  T
C1381      C1382   1.402       .  A
C1381      C1386   1.414       .  A
C1382      C1383   1.398       .  A
C1382      H1387   1.085       .  S
C1383      C1384   1.419       .  A
C1383      C1390   1.445       .  S
C1384      C1385   1.408       .  A
C1385      C1386   1.407       .  A
C1385      H1388   1.084       .  S
C1386      C1389   1.444       .  S
C1389      N1391   1.157       .  T
C1390      N1392   1.157       .  T
