geometry optimzed in LAMMPS
_audit_creation_date              2020-12-01 
_audit_creation_method            'lammps2cif' 
_symmetry_space_group_name_H-M    'P1' 
_symmetry_Int_Tables_number       1 
_symmetry_cell_setting            triclinic 
loop_ 
_symmetry_equiv_pos_as_xyz 
  x,y,z 
_cell_length_a                    32.17898456 
_cell_length_b                    27.221177143572024 
_cell_length_c                    33.57218221829711 
_cell_angle_alpha                 81.70009034422966 
_cell_angle_beta                  112.1835848651597 
_cell_angle_gamma                 95.5993885342916 
loop_ 
_atom_site_label 
_atom_site_type_symbol 
_atom_site_fract_x 
_atom_site_fract_y 
_atom_site_fract_z 
_atom_site_charge 
O1          O  0.94746744  0.99438319  0.38525972    -0.80700
O2          O  0.96484967  0.98564057  0.58258494    -0.65400
O3          O  0.96407457  0.02192243  0.46777384    -1.12000
C4          C  0.11314905  0.98374416  0.52395043     1.06200
O5          O  0.03679663  0.00465291  0.61984521    -0.78600
O6          O  0.05723251  0.07129437  0.55853876    -0.66200
Ni7        Ni  0.91388318  0.99710517  0.42120840     1.34900
C8          C  0.05655926  0.08882424  0.52102891     0.84900
O9          O  0.90785537  0.03087298  0.51111283    -0.79100
O10         O  0.87210281  0.99936812  0.44875545    -0.89400
C11         C  0.99723285  0.99135217  0.61795446     0.84500
O12         O  0.92460236  0.92933609  0.44507275    -0.67600
O13         O  0.11295273  0.00368251  0.55576262    -0.86900
C14         C  0.92597779  0.91131016  0.48268668     0.85300
C15         C  0.87237244  0.01688208  0.48179813     1.06900
H16         H  0.01986932  0.94173363  0.54382506     0.38700
O17         O  0.02111562  0.97752125  0.53764265    -1.09500
O18         O  0.04856573  0.06156807  0.49071888    -0.66200
Ni19       Ni  0.02108494  0.99534990  0.48049296     1.26300
O20         O  0.93603722  0.93776864  0.51385117    -0.66400
O21         O  0.07771101  0.96858849  0.49508035    -0.78700
C22         C  0.98741323  0.00518319  0.38744159     0.84700
O23         O  0.01983729  0.01156994  0.42266123    -0.65900
Ni24       Ni  0.07070260  0.00424114  0.58351373     1.27400
Ni25       Ni  0.96400548  0.00363315  0.52497892     1.26100
H26         H  0.96570145  0.05774719  0.46208641     0.39300
O27         O  0.45115629  0.98467388  0.38366155    -0.80700
O28         O  0.46951933  0.98645654  0.57936534    -0.65400
O29         O  0.47170116  0.01246217  0.46550398    -1.12000
C30         C  0.61197215  0.94191343  0.52770614     1.06200
O31         O  0.54174334  0.00747468  0.61283086    -0.78600
O32         O  0.57972484  0.05015230  0.55714882    -0.66200
Ni33       Ni  0.41885927  0.99132722  0.41957250     1.34900
C34         C  0.57708417  0.06542364  0.51878961     0.84900
O35         O  0.41697840  0.03434530  0.50643008    -0.79100
O36         O  0.37804298  0.99869582  0.44713153    -0.89400
C37         C  0.50220220  0.99856535  0.61242883     0.84500
O38         O  0.42626646  0.92345746  0.44395027    -0.67600
O39         O  0.61542011  0.96155476  0.56094865    -0.86900
C40         C  0.42675106  0.90678032  0.48154518     0.85300
C41         C  0.38024453  0.02277625  0.47744598     1.06900
H42         H  0.51737653  0.92923195  0.54302751     0.38700
O43         O  0.52291516  0.96439259  0.53647148    -1.09500
O44         O  0.56076659  0.03825246  0.48789360    -0.66200
Ni45       Ni  0.52446175  0.97594635  0.47975865     1.26300
O46         O  0.43584659  0.93481770  0.51167202    -0.66400
O47         O  0.57570952  0.93833808  0.49543475    -0.78700
C48         C  0.49171289  0.98610083  0.38690875     0.84700
O49         O  0.52468170  0.98592947  0.42258352    -0.65900
Ni50       Ni  0.57510248  0.98412511  0.58339552     1.27400
Ni51       Ni  0.46958538  0.99877973  0.52206184     1.26100
H52         H  0.47771706  0.04762746  0.45934326     0.39300
O53         O  0.20469838  0.48949727  0.38434842    -0.80700
O54         O  0.21773916  0.49017929  0.57928570    -0.65400
O55         O  0.22409829  0.51938509  0.46658277    -1.12000
C56         C  0.36421804  0.45341402  0.52773113     1.06200
O57         O  0.29056725  0.49800864  0.61885342    -0.78600
O58         O  0.32163275  0.55557689  0.56027521    -0.66200
Ni59       Ni  0.17163628  0.50098678  0.41899816     1.34900
C60         C  0.32299975  0.57184389  0.52323597     0.84900
O61         O  0.17038090  0.54355712  0.50755351    -0.79100
O62         O  0.13071535  0.51364827  0.44522203    -0.89400
C63         C  0.24978991  0.49220745  0.61542976     0.84500
O64         O  0.17302444  0.43262023  0.44248301    -0.67600
O65         O  0.36597232  0.47531324  0.55925095    -0.86900
C66         C  0.17142396  0.41685080  0.47946458     0.85300
C67         C  0.13364531  0.53536688  0.47726084     1.06900
H68         H  0.26601443  0.43246974  0.54228005     0.38700
O69         O  0.27261386  0.46765598  0.53686777    -1.09500
O70         O  0.31247212  0.54433465  0.49267760    -0.66200
Ni71       Ni  0.27626352  0.48244898  0.48063492     1.26300
O72         O  0.18345073  0.44402233  0.51028921    -0.66400
O73         O  0.32799874  0.44510408  0.49659392    -0.78700
C74         C  0.24544283  0.49362581  0.38753504     0.84700
O75         O  0.27802937  0.49595356  0.42350361    -0.65900
Ni76       Ni  0.32429469  0.48729987  0.58457136     1.27400
Ni77       Ni  0.22069574  0.50483499  0.52281712     1.26100
H78         H  0.23066998  0.55453201  0.46126780     0.39300
O79         O  0.70734035  0.48557104  0.38346497    -0.80700
O80         O  0.71940442  0.47406305  0.57963426    -0.65400
O81         O  0.72106478  0.51119963  0.46572809    -1.12000
C82         C  0.87061989  0.47337788  0.52560719     1.06200
O83         O  0.78963720  0.49961187  0.61655493    -0.78600
O84         O  0.81495688  0.56261713  0.55713206    -0.66200
Ni85       Ni  0.67208447  0.48577509  0.41841695     1.34900
C86         C  0.81514944  0.57961874  0.51984779     0.84900
O87         O  0.66236573  0.51762788  0.50711962    -0.79100
O88         O  0.62863883  0.48606307  0.44457263    -0.89400
C89         C  0.75035230  0.48468448  0.61455312     0.84500
O90         O  0.68343150  0.41788269  0.44198869    -0.67600
O91         O  0.86960199  0.49189398  0.55776594    -0.86900
C92         C  0.68438096  0.39918326  0.47936329     0.85300
C93         C  0.62753226  0.50363449  0.47707728     1.06900
H94         H  0.77697615  0.43215551  0.54272646     0.38700
O95         O  0.77754482  0.46789356  0.53638548    -1.09500
O96         O  0.80615820  0.55215102  0.48956848    -0.66200
Ni97       Ni  0.77886599  0.48568569  0.47967161     1.26300
O98         O  0.69330918  0.42537453  0.51063619    -0.66400
O99         O  0.83573736  0.45924758  0.49553898    -0.78700
C100        C  0.74744924  0.49763735  0.38656652     0.84700
O101        O  0.77929955  0.50246081  0.42243917    -0.65900
Ni102      Ni  0.82574620  0.49535155  0.58298998     1.27400
Ni103      Ni  0.71951090  0.49207334  0.52231168     1.26100
H104        H  0.72237373  0.54706461  0.46024633     0.39300
O105        O  0.94889734  0.00002130  0.89441520    -0.80700
O106        O  0.99430957  0.02552759  0.08864560    -0.65400
O107        O  0.99993514  0.03212446  0.97675201    -1.12000
C108        C  0.05161519  0.86984971  0.02520331     1.06200
O109        O  0.06000821  0.99102512  0.12302105    -0.78600
O110        O  0.10715180  0.97331607  0.07440977    -0.66200
Ni111      Ni  0.95046435  0.05488792  0.92572175     1.34900
C112        C  0.10984154  0.98471515  0.03740728     0.84900
O113        O  0.98081290  0.09820711  0.02333673    -0.79100
O114        O  0.94688726  0.11251257  0.95081486    -0.89400
C115        C  0.02666389  0.01230492  0.12327391     0.84500
O116        O  0.90274194  0.02274072  0.94177362    -0.67600
O117        O  0.06504311  0.88238472  0.06334691    -0.86900
C118        C  0.89990946  0.01074206  0.97864678     0.85300
C119        C  0.95817521  0.12494482  0.98879816     1.06900
H120        H  0.98428986  0.94117021  0.03926329     0.38700
O121        O  0.01021190  0.96219776  0.03918424    -1.09500
O122        O  0.07650298  0.98283315  0.00198704    -0.66200
Ni123      Ni  0.01377396  0.96429747  0.98353127     1.26300
O124        O  0.93336491  0.01107519  0.01414599    -0.66400
O125        O  0.02754249  0.89640815  0.99147542    -0.78700
C126        C  0.98236363  0.98028854  0.89298639     0.84700
O127        O  0.01591668  0.96910197  0.92711404    -0.65900
Ni128      Ni  0.05995505  0.93846416  0.08984579     1.27400
Ni129      Ni  0.99605612  0.03022569  0.03220470     1.26100
H130        H  0.02588921  0.05312912  0.97670178     0.39300
O131        O  0.55039969  0.96288858  0.11611843    -0.80700
O132        O  0.51532740  0.99406729  0.91606995    -0.65400
O133        O  0.53576244  0.01376296  0.03195062    -1.12000
C134        C  0.37985538  0.98083745  0.99344683     1.06200
O135        O  0.44854778  0.02771766  0.88495409    -0.78600
O136        O  0.42861390  0.07645588  0.94067839    -0.66200
Ni137      Ni  0.58412359  0.98150339  0.07908769     1.34900
C138        C  0.43940754  0.08910646  0.97840455     0.84900
O139        O  0.58736713  0.02477328  0.97958768    -0.79100
O140        O  0.62482412  0.99757358  0.04931920    -0.89400
C141        C  0.48319230  0.01136560  0.88294638     0.84500
O142        O  0.57195156  0.91703098  0.06000180    -0.67600
O143        O  0.37755074  0.99653586  0.95521092    -0.86900
C144        C  0.56155038  0.90545510  0.02199558     0.85300
C145        C  0.62366082  0.01478621  0.01166438     1.06900
H146        H  0.46333631  0.94566269  0.96945984     0.38700
O147        O  0.46713149  0.98111807  0.97072177    -1.09500
O148        O  0.45759638  0.06016758  0.01291713    -0.66200
Ni149      Ni  0.47618366  0.99266358  0.02825884     1.26300
O150        O  0.54496974  0.93561055  0.98797492    -0.66400
O151        O  0.41657369  0.97100400  0.02464134    -0.78700
C152        C  0.51799764  0.98373754  0.11851297     0.84700
O153        O  0.48806317  0.00445997  0.08556664    -0.65900
Ni154      Ni  0.41695793  0.01091480  0.92385314     1.27400
Ni155      Ni  0.52693508  0.00331803  0.97428991     1.26100
H156        H  0.54028702  0.04906066  0.03401215     0.39300
O157        O  0.17992584  0.48426413  0.88925709    -0.80700
O158        O  0.23953223  0.50412729  0.08439663    -0.65400
O159        O  0.23614629  0.51788926  0.96942864    -1.12000
C160        C  0.30327779  0.36281420  0.01150125     1.06200
O161        O  0.30933832  0.47871954  0.11425757    -0.78600
O162        O  0.35385650  0.47235310  0.05719436    -0.66200
Ni163      Ni  0.18267202  0.53892697  0.92179405     1.34900
C164        C  0.35409151  0.48033309  0.01882532     0.84900
O165        O  0.21768404  0.57832606  0.02058318    -0.79100
O166        O  0.18197889  0.59647425  0.94857062    -0.89400
C167        C  0.27440182  0.49375498  0.11740347     0.84500
O168        O  0.13637900  0.50825040  0.94235433    -0.67600
O169        O  0.32028422  0.37728542  0.04911922    -0.86900
C170        C  0.13669833  0.49447828  0.98045883     0.85300
C171        C  0.19476923  0.60673830  0.98745973     1.06900
H172        H  0.23378066  0.42273276  0.03432501     0.38700
O173        O  0.25676646  0.44710637  0.03155922    -1.09500
O174        O  0.31817738  0.47531845  0.98554452    -0.66200
Ni175      Ni  0.25526177  0.45226322  0.97379453     1.26300
O176        O  0.17344200  0.48898349  0.01338906    -0.66400
O177        O  0.27341205  0.38601204  0.97945183    -0.78700
C178        C  0.21373307  0.47004109  0.88357910     0.84700
O179        O  0.24983871  0.45994427  0.91526509    -0.65900
Ni180      Ni  0.31251448  0.43005887  0.07809017     1.27400
Ni181      Ni  0.23634391  0.51233456  0.02654128     1.24500
H182        H  0.26023049  0.54141681  0.96799308     0.39300
O183        O  0.68485472  0.50676718  0.88593249    -0.80700
O184        O  0.74000089  0.52938003  0.08370366    -0.65400
O185        O  0.73540256  0.54076540  0.96786216    -1.12000
C186        C  0.80210513  0.38338762  0.01596284     1.06200
O187        O  0.81072791  0.50786603  0.11020302    -0.78600
O188        O  0.85639940  0.48448930  0.05910711    -0.66200
Ni189      Ni  0.68058789  0.55743158  0.91993138     1.34900
C190        C  0.85637207  0.49819507  0.02110338     0.84900
O191        O  0.71588925  0.60203086  0.01783633    -0.79100
O192        O  0.67207244  0.61172646  0.94705974    -0.89400
C193        C  0.77635556  0.52073943  0.11565990     0.84500
O194        O  0.63773040  0.51733894  0.94016719    -0.67600
O195        O  0.81334636  0.39465918  0.05437702    -0.86900
C196        C  0.63695536  0.50933970  0.97834576     0.85300
C197        C  0.68728782  0.62566451  0.98493219     1.06900
H198        H  0.73294736  0.44699484  0.03242090     0.38700
O199        O  0.75659030  0.47115992  0.03093060    -1.09500
O200        O  0.81986740  0.50188129  0.98780326    -0.66200
Ni201      Ni  0.75768432  0.47606911  0.97423816     1.26300
O202        O  0.67276563  0.51252806  0.01212250    -0.66400
O203        O  0.77901688  0.41064790  0.98196250    -0.78700
C204        C  0.72058469  0.49329255  0.88319293     0.84700
O205        O  0.75539573  0.48378684  0.91657520    -0.65900
Ni206      Ni  0.81027386  0.45259259  0.07940424     1.27400
Ni207      Ni  0.73562646  0.53630261  0.02511487     1.26100
H208        H  0.75830213  0.56550585  0.96552451     0.39300
C209        C  0.44853259  0.49809626  0.98217740     0.20600
C210        C  0.47042278  0.50031418  0.95228891    -0.39300
C211        C  0.51798230  0.49901278  0.96988300     0.19500
C212        C  0.54194451  0.49579631  0.01396698     0.22200
C213        C  0.52008299  0.49369130  0.04380883    -0.39800
C214        C  0.47257633  0.49498580  0.02624071     0.21000
N215        N  0.40372320  0.49649006  0.97380489    -0.33100
C216        C  0.39853417  0.49223172  0.01271938    -0.10700
C217        C  0.44118998  0.49140978  0.04613825    -0.29500
N218        N  0.58670400  0.49626150  0.02255224    -0.46100
C219        C  0.59206951  0.49969720  0.98380630    -0.05300
C220        C  0.54950795  0.50161521  0.95016890    -0.22700
H221        H  0.45171717  0.50265070  0.91773120     0.19100
H222        H  0.53876936  0.49096011  0.07838247     0.17900
H223        H  0.44829950  0.48614048  0.08061103     0.14200
H224        H  0.54258344  0.50640911  0.91572995     0.14000
H225        H  0.37804555  0.49605972  0.94336180     0.32200
H226        H  0.61230319  0.49607902  0.05309051     0.35000
C227        C  0.02165138  0.49953545  0.97484924     0.20600
C228        C  0.97570640  0.51104882  0.95534316    -0.39300
C229        C  0.95169050  0.50931675  0.98333370     0.19500
C230        C  0.97196985  0.49713576  0.02752592     0.22200
C231        C  0.01795744  0.48572944  0.04705046    -0.39800
C232        C  0.04196078  0.48735493  0.01903484     0.21000
N233        N  0.05186552  0.50013962  0.95543947    -0.33100
C234        C  0.09229077  0.48844046  0.98716401    -0.10700
C235        C  0.08703160  0.48008307  0.02741465    -0.29500
N236        N  0.94148968  0.49545918  0.04677304    -0.46100
C237        C  0.90094821  0.50631514  0.01488841    -0.05300
C238        C  0.90641634  0.51546851  0.97476783    -0.22700
H239        H  0.95966092  0.52040163  0.92069551     0.19100
H240        H  0.03391120  0.47601363  0.08166282     0.17900
H241        H  0.11322589  0.47238059  0.05893798     0.14200
H242        H  0.88019532  0.52250869  0.94316035     0.14000
H243        H  0.04573242  0.51029554  0.92257451     0.32200
H244        H  0.94747659  0.48472491  0.07954236     0.35000
C245        C  0.36495317  0.25776436  0.01893945     0.20600
C246        C  0.39664498  0.22149038  0.03979484    -0.39300
C247        C  0.40605659  0.19354719  0.01257118     0.19500
C248        C  0.38549834  0.20107386  0.96792751     0.22200
C249        C  0.35357928  0.23736063  0.94701157    -0.39800
C250        C  0.34408393  0.26536659  0.97431931     0.21000
N251        N  0.35121798  0.28985440  0.03767677    -0.33100
C252        C  0.32136036  0.31833481  0.00488974    -0.10700
C253        C  0.31574787  0.30397988  0.96478042    -0.29500
N254        N  0.39806675  0.16729687  0.94963340    -0.46100
C255        C  0.42649198  0.13780769  0.98292799    -0.05300
C256        C  0.43251050  0.15340548  0.02264362    -0.22700
H257        H  0.41246893  0.21513437  0.07471916     0.19100
H258        H  0.33704950  0.24300801  0.91213202     0.17900
H259        H  0.29539343  0.32099892  0.93297979     0.14200
H260        H  0.45085140  0.13533638  0.05469503     0.14000
H261        H  0.36263334  0.29323190  0.07075357     0.32200
H262        H  0.38553409  0.16241086  0.91680657     0.35000
C263        C  0.61180908  0.79162524  0.03055630     0.20600
C264        C  0.64348542  0.75499951  0.05049891    -0.39300
C265        C  0.64965757  0.72507614  0.02264746     0.19500
C266        C  0.62603077  0.73113270  0.97836146     0.22200
C267        C  0.59455273  0.76789563  0.95840648    -0.39800
C268        C  0.58844636  0.79786447  0.98622833     0.21000
N269        N  0.60203113  0.82685480  0.04944906    -0.33100
C270        C  0.57268863  0.85617161  0.01686644    -0.10700
C271        C  0.56315106  0.83894175  0.97698858    -0.29500
N272        N  0.63760895  0.69767993  0.95909270    -0.46100
C273        C  0.66895372  0.67013548  0.99131461    -0.05300
C274        C  0.67737541  0.68617233  0.03143832    -0.22700
H275        H  0.66234907  0.75055595  0.08506419     0.19100
H276        H  0.57661408  0.77324236  0.92370062     0.17900
H277        H  0.54305300  0.85627692  0.94521511     0.14200
H278        H  0.69973413  0.67048943  0.06290812     0.14000
H279        H  0.61691231  0.83269314  0.08203803     0.32200
H280        H  0.62425914  0.69317854  0.92617432     0.35000
C281        C  0.80527186  0.99791161  0.00959823     0.20600
C282        C  0.78387995  0.99840938  0.03888721    -0.39300
C283        C  0.73841205  0.00918577  0.02043977     0.19500
C284        C  0.71563079  0.01845465  0.97616616     0.22200
C285        C  0.73720248  0.01824864  0.94676863    -0.39800
C286        C  0.78296991  0.00774838  0.96528240     0.21000
N287        N  0.84912807  0.99261969  0.01938236    -0.33100
C288        C  0.85527357  0.00010650  0.98116012    -0.10700
C289        C  0.81459828  0.00890651  0.94654374    -0.29500
N290        N  0.67190760  0.02525900  0.96699351    -0.46100
C291        C  0.66705970  0.02003239  0.00583862    -0.05300
C292        C  0.70797115  0.01052295  0.03981045    -0.22700
H293        H  0.80148154  0.99135312  0.07356851     0.19100
H294        H  0.71980526  0.02618198  0.91214195     0.17900
H295        H  0.80956815  0.01930699  0.91274113     0.14200
H296        H  0.71406753  0.00256974  0.07404487     0.14000
H297        H  0.87391272  0.98827876  0.05043362     0.32200
H298        H  0.64660767  0.03033129  0.93630629     0.35000
C299        C  0.20255221  0.00133275  0.00391436     0.20600
C300        C  0.22252879  0.00270192  0.97331816    -0.39300
C301        C  0.26763363  0.99082983  0.98990863     0.19500
C302        C  0.29145188  0.97872016  0.03368806     0.22200
C303        C  0.27131520  0.97719437  0.06447256    -0.39800
C304        C  0.22583304  0.98891798  0.04778504     0.21000
N305        N  0.15905788  0.00662524  0.99563542    -0.33100
C306        C  0.15404375  0.99663634  0.03431276    -0.10700
C307        C  0.19515660  0.98628391  0.06783171    -0.29500
N308        N  0.33444539  0.97043830  0.04088983    -0.46100
C309        C  0.33760474  0.97746725  0.00123625    -0.05300
C310        C  0.29652271  0.98991289  0.96881035    -0.22700
H311        H  0.20405612  0.01159479  0.93896160     0.19100
H312        H  0.28942629  0.96686370  0.09868449     0.17900
H313        H  0.20094270  0.97362492  0.10149032     0.14200
H314        H  0.28931571  0.99954255  0.93450034     0.14000
H315        H  0.13368473  0.01241350  0.96503092     0.32200
H316        H  0.36032081  0.96272032  0.07087436     0.35000
C317        C  0.91073676  0.21833677  0.01956976     0.20600
C318        C  0.89664026  0.23989765  0.04745507    -0.39300
C319        C  0.86457547  0.27588200  0.02756500     0.19500
C320        C  0.84760305  0.28937316  0.98322703     0.22200
C321        C  0.86143738  0.26745981  0.95519515    -0.39800
C322        C  0.89370488  0.23148406  0.97518395     0.21000
N323        N  0.93941034  0.18168697  0.03043858    -0.33100
C324        C  0.94024482  0.17080637  0.99265612    -0.10700
C325        C  0.91249655  0.20149446  0.95749062    -0.29500
N326        N  0.81994184  0.32705805  0.97288331    -0.46100
C327        C  0.81978616  0.33783623  0.01103408    -0.05300
C328        C  0.84681600  0.30624901  0.04573628    -0.22700
H329        H  0.90997823  0.22971440  0.08216784     0.19100
H330        H  0.84830575  0.27785463  0.92050140     0.17900
H331        H  0.90450854  0.19952583  0.92339317     0.14200
H332        H  0.85511034  0.30782326  0.07993676     0.14000
H333        H  0.95484273  0.16285035  0.06131062     0.32200
H334        H  0.80470432  0.34643420  0.94221249     0.35000
C335        C  0.11244226  0.76453889  0.03344424     0.20600
C336        C  0.14600487  0.73007621  0.05372452    -0.39300
C337        C  0.15635265  0.70403916  0.02580876     0.19500
C338        C  0.13500879  0.71203550  0.98123825     0.22200
C339        C  0.10147798  0.74633760  0.96105026    -0.39800
C340        C  0.09101638  0.77213712  0.98887788     0.21000
N341        N  0.09822715  0.79594206  0.05241159    -0.33100
C342        C  0.06786937  0.82392408  0.01959326    -0.10700
C343        C  0.06208938  0.80973329  0.97951754    -0.29500
N344        N  0.14900962  0.68096478  0.96192292    -0.46100
C345        C  0.17904562  0.65236680  0.99434838    -0.05300
C346        C  0.18493975  0.66598772  0.03474444    -0.22700
H347        H  0.16270697  0.72394717  0.08857296     0.19100
H348        H  0.08475101  0.75246258  0.92620716     0.17900
H349        H  0.04205873  0.82710025  0.94772835     0.14200
H350        H  0.20488587  0.64812641  0.06635503     0.14000
H351        H  0.11053158  0.80018430  0.08536773     0.32200
H352        H  0.13662133  0.67729247  0.92885437     0.35000
C353        C  0.75675172  0.47801500  0.72367551     0.20600
C354        C  0.77891518  0.47691987  0.76856835    -0.39300
C355        C  0.75171228  0.48107195  0.79193416     0.19500
C356        C  0.70585870  0.48660528  0.77226573     0.22200
C357        C  0.68352015  0.48745378  0.72704686    -0.39800
C358        C  0.71080064  0.48260404  0.70350500     0.21000
N359        N  0.77570925  0.47669561  0.69453632    -0.33100
C360        C  0.74188775  0.48026426  0.65521236    -0.10700
C361        C  0.70060892  0.48349732  0.65937847    -0.29500
N362        N  0.68808932  0.49125178  0.80205553    -0.46100
C363        C  0.72300316  0.48805186  0.84084293    -0.05300
C364        C  0.76308681  0.48172808  0.83560726    -0.22700
H365        H  0.81489735  0.47356457  0.78416012     0.19100
H366        H  0.64771756  0.49201040  0.71134502     0.17900
H367        H  0.66805502  0.48816016  0.63362505     0.14200
H368        H  0.79639049  0.47898268  0.86046301     0.14000
H369        H  0.80993685  0.47456909  0.70099740     0.32200
H370        H  0.65452425  0.49655205  0.79636528     0.35000
C371        C  0.78637136  0.51182387  0.29825492     0.20600
C372        C  0.81495116  0.50700703  0.27603581    -0.39300
C373        C  0.79608533  0.51761341  0.23054612     0.19500
C374        C  0.75240391  0.53238948  0.20928267     0.22200
C375        C  0.72399427  0.53687954  0.23130832    -0.39800
C376        C  0.74250563  0.52568561  0.27630701     0.21000
N377        N  0.79488457  0.50133721  0.34109493    -0.33100
C378        C  0.75568979  0.50768548  0.34579092    -0.10700
C379        C  0.72252470  0.52301519  0.30615023    -0.29500
N380        N  0.74122290  0.53758167  0.16623806    -0.46100
C381        C  0.77765918  0.52558819  0.15939529    -0.05300
C382        C  0.81283308  0.51310762  0.19881968    -0.22700
H383        H  0.84877555  0.49450616  0.29274001     0.19100
H384        H  0.68938602  0.54677939  0.21443487     0.17900
H385        H  0.68798393  0.53020774  0.29990285     0.14200
H386        H  0.84529330  0.50013597  0.20356216     0.14000
H387        H  0.82471064  0.48882781  0.36523988     0.32200
H388        H  0.70981518  0.54654553  0.14282826     0.35000
C389        C  0.20892055  0.48365464  0.70245109     0.20600
C390        C  0.17901974  0.48719535  0.72363020    -0.39300
C391        C  0.19664366  0.47583365  0.76912701     0.19500
C392        C  0.24041705  0.46172148  0.79122673     0.22200
C393        C  0.27012480  0.45872448  0.77032166    -0.39800
C394        C  0.25279279  0.47040454  0.72539512     0.21000
N395        N  0.20129654  0.49304700  0.65967883    -0.33100
C396        C  0.24099022  0.48624733  0.65603725    -0.10700
C397        C  0.27363259  0.47217439  0.69635801    -0.29500
N398        N  0.25025279  0.45517504  0.83400551    -0.46100
C399        C  0.21296197  0.46585935  0.84000050    -0.05300
C400        C  0.17841033  0.47857897  0.80018477    -0.22700
H401        H  0.14498837  0.49875402  0.70616656     0.19100
H402        H  0.30465309  0.44889809  0.78795048     0.17900
H403        H  0.30815237  0.46406311  0.70346419     0.14200
H404        H  0.14548247  0.49069952  0.79482726     0.14000
H405        H  0.17138846  0.50399816  0.63476454     0.32200
H406        H  0.28148971  0.44648512  0.85788077     0.35000
C407        C  0.28968505  0.49477096  0.22902941     0.20600
C408        C  0.31075529  0.48626477  0.27446320    -0.39300
C409        C  0.28423948  0.49282614  0.29829360     0.19500
C410        C  0.24008327  0.50631151  0.27815219     0.22200
C411        C  0.21918966  0.51508163  0.23300018    -0.39800
C412        C  0.24569976  0.50893595  0.20939010     0.21000
N413        N  0.30667056  0.48905685  0.19893249    -0.33100
C414        C  0.27311953  0.49978538  0.15999664    -0.10700
C415        C  0.23475818  0.51255343  0.16539954    -0.29500
N416        N  0.22140767  0.50833402  0.30743197    -0.46100
C417        C  0.25374009  0.49646781  0.34682136    -0.05300
C418        C  0.29365649  0.48674811  0.34254194    -0.22700
H419        H  0.34499568  0.47474407  0.29006742     0.19100
H420        H  0.18452253  0.52521232  0.21734375     0.17900
H421        H  0.20247810  0.52134529  0.14040378     0.14200
H422        H  0.32485848  0.47565435  0.36816545     0.14000
H423        H  0.33849830  0.47718228  0.20451693     0.32200
H424        H  0.18842539  0.51717162  0.30094075     0.35000
C425        C  0.45387008  0.44693810  0.49406903     0.20600
C426        C  0.47264883  0.45356532  0.46221178    -0.39300
C427        C  0.51634425  0.47468038  0.47490529     0.19500
C428        C  0.53964517  0.48792938  0.51616093     0.22200
C429        C  0.52120142  0.48068734  0.54817142    -0.39800
C430        C  0.47746014  0.45981028  0.53545862     0.21000
N431        N  0.41064303  0.43568736  0.48806220    -0.33100
C432        C  0.40667794  0.44310145  0.52542517    -0.10700
C433        C  0.44793437  0.45622502  0.55626579    -0.29500
N434        N  0.58126069  0.50538585  0.52063591    -0.46100
C435        C  0.58465362  0.50203599  0.48221123    -0.05300
C436        C  0.54463764  0.48401369  0.45257447    -0.22700
H437        H  0.45414200  0.44439270  0.42962004     0.19100
H438        H  0.53903780  0.49199044  0.58014937     0.17900
H439        H  0.45413834  0.46880754  0.58726246     0.14200
H440        H  0.53841429  0.47485701  0.42041944     0.14000
H441        H  0.38463393  0.42996383  0.45870372     0.32200
H442        H  0.60679938  0.51490655  0.54908640     0.35000
C443        C  0.02332619  0.52673603  0.47213012     0.20600
C444        C  0.97999187  0.50522172  0.45625114    -0.39300
C445        C  0.95968617  0.49285821  0.48652431     0.19500
C446        C  0.98053791  0.50201683  0.52927966     0.22200
C447        C  0.02407856  0.52352204  0.54535560    -0.39800
C448        C  0.04477385  0.53523626  0.51507262     0.21000
N449        N  0.05186048  0.53400953  0.45137305    -0.33100
C450        C  0.09218107  0.54502639  0.48166592    -0.10700
C451        C  0.08891014  0.54818757  0.52144535    -0.29500
N452        N  0.95243220  0.49047305  0.55045467    -0.46100
C453        C  0.91348961  0.47452279  0.52058329    -0.05300
C454        C  0.91706911  0.47429537  0.48066686    -0.22700
H455        H  0.96371831  0.49750425  0.42295870     0.19100
H456        H  0.04093369  0.52945899  0.57904996     0.17900
H457        H  0.11617806  0.55144445  0.55224195     0.14200
H458        H  0.89058779  0.46706679  0.45031650     0.14000
H459        H  0.04550501  0.52514105  0.42027193     0.32200
H460        H  0.95813239  0.49713140  0.58202343     0.35000
C461        C  0.51434772  0.00768443  0.72045087     0.20600
C462        C  0.53833774  0.00743545  0.76485410    -0.39300
C463        C  0.51264114  0.01077408  0.78961369     0.19500
C464        C  0.46653416  0.01513246  0.77148047     0.22200
C465        C  0.44227916  0.01494678  0.72676847    -0.39800
C466        C  0.46808597  0.01055546  0.70191089     0.21000
N467        N  0.53142107  0.00352839  0.69063628    -0.33100
C468        C  0.49602354  0.00294697  0.65269133    -0.10700
C469        C  0.45564590  0.00721061  0.65813864    -0.29500
N470        N  0.45016313  0.01720173  0.80249526    -0.46100
C471        C  0.48615769  0.01326567  0.84036135    -0.05300
C472        C  0.52564317  0.00913911  0.83364411    -0.22700
H473        H  0.57437393  0.00397882  0.77916194     0.19100
H474        H  0.40611526  0.01717594  0.71259674     0.17900
H475        H  0.42209801  0.00781299  0.63362002     0.14200
H476        H  0.55920847  0.00494905  0.85776264     0.14000
H477        H  0.56527491  0.00037344  0.69600493     0.32200
H478        H  0.41655004  0.01968942  0.79832769     0.35000
C479        C  0.48429158  0.99520094  0.27824783     0.20600
C480        C  0.46228694  0.00159991  0.23335558    -0.39300
C481        C  0.48766193  0.99269864  0.20971498     0.19500
C482        C  0.53162903  0.97828333  0.22917309     0.22200
C483        C  0.55390637  0.97225158  0.27434944    -0.39800
C484        C  0.52842314  0.98138505  0.29817657     0.21000
N485        N  0.46656051  0.99957028  0.30755801    -0.33100
C486        C  0.49944131  0.98847898  0.34656822    -0.10700
C487        C  0.53885179  0.97737918  0.34229787    -0.29500
N488        N  0.54806602  0.97200821  0.19907436    -0.46100
C489        C  0.51423320  0.98299705  0.16052467    -0.05300
C490        C  0.47611684  0.99602231  0.16583657    -0.22700
H491        H  0.42777439  0.01233464  0.21797589     0.19100
H492        H  0.58823364  0.96093191  0.28972944     0.17900
H493        H  0.57009238  0.96618452  0.36782270     0.14200
H494        H  0.44437985  0.00685665  0.14090368     0.14000
H495        H  0.43370314  0.00867743  0.30131891     0.32200
H496        H  0.58038433  0.96190430  0.20434644     0.35000
C497        C  0.36774579  0.69804535  0.52838529     0.20600
C498        C  0.38687895  0.74140459  0.54793001    -0.39300
C499        C  0.39676416  0.78146337  0.52093570     0.19500
C500        C  0.38830576  0.77848538  0.47775203     0.22200
C501        C  0.36933923  0.73503846  0.45822349    -0.39800
C502        C  0.35942834  0.69497116  0.48524255     0.21000
N503        N  0.35516428  0.65508061  0.54707752    -0.33100
C504        C  0.33886971  0.62411250  0.51577720    -0.10700
C505        C  0.34097021  0.64778631  0.47668115    -0.29500
N506        N  0.39916320  0.82216382  0.45870115    -0.46100
C507        C  0.41437401  0.85345115  0.48981836    -0.05300
C508        C  0.41367247  0.82918700  0.52920692    -0.22700
H509        H  0.39317153  0.74393955  0.58161068     0.19100
H510        H  0.36243208  0.73275433  0.42437544     0.17900
H511        H  0.33070349  0.63240863  0.44621857     0.14200
H512        H  0.42302013  0.84478400  0.55946431     0.14000
H513        H  0.35798055  0.64712495  0.57935116     0.32200
H514        H  0.39524312  0.83058571  0.42616025     0.35000
C515        C  0.62438616  0.19038910  0.52355588     0.20600
C516        C  0.64356553  0.23347366  0.54335169    -0.39300
C517        C  0.65362576  0.27357429  0.51664907     0.19500
C518        C  0.64531305  0.27104516  0.47343183     0.22200
C519        C  0.62586645  0.22784254  0.45350318    -0.39800
C520        C  0.61568524  0.18756893  0.48030057     0.21000
N521        N  0.61165655  0.14759846  0.54214122    -0.33100
C522        C  0.59448419  0.11687117  0.51072609    -0.10700
C523        C  0.59638852  0.14055032  0.47151656    -0.29500
N524        N  0.65680307  0.31485020  0.45489860    -0.46100
C525        C  0.67232090  0.34554126  0.48651994    -0.05300
C526        C  0.67086938  0.32091728  0.52549265    -0.22700
H527        H  0.64983978  0.23574407  0.57707543     0.19100
H528        H  0.61884447  0.22588268  0.41958865     0.17900
H529        H  0.58526736  0.12543888  0.44086855     0.14200
H530        H  0.67983934  0.33613356  0.55587917     0.14000
H531        H  0.61448481  0.13979848  0.57443059     0.32200
H532        H  0.65299750  0.32378172  0.42242898     0.35000
C533        C  0.96065588  0.97072863  0.78167728     0.20600
C534        C  0.93676169  0.97797967  0.73659916    -0.39300
C535        C  0.96188948  0.97551266  0.71060699     0.19500
C536        C  0.00726543  0.96662751  0.72850420     0.22200
C537        C  0.03086125  0.95860042  0.77334306    -0.39800
C538        C  0.00585553  0.96099064  0.79917769     0.21000
N539        N  0.94588152  0.97634736  0.81320251    -0.33100
C540        C  0.98197005  0.97025269  0.85088091    -0.10700
C541        C  0.01983798  0.95996090  0.84344516    -0.29500
N542        N  0.02460755  0.97031521  0.69759822    -0.46100
C543        C  0.99031682  0.98146094  0.65946011    -0.05300
C544        C  0.95028620  0.98445048  0.66607455    -0.22700
H545        H  0.90172609  0.98691613  0.72285084     0.19100
H546        H  0.06660415  0.95304183  0.78712820     0.17900
H547        H  0.05373316  0.95591104  0.86692249     0.14200
H548        H  0.91781885  0.99420255  0.64193707     0.14000
H549        H  0.91384503  0.98621019  0.80915809     0.32200
H550        H  0.05819335  0.96656536  0.70228955     0.35000
C551        C  0.02742187  0.01301555  0.30064579     0.20600
C552        C  0.05785065  0.00909958  0.28043908    -0.39300
C553        C  0.04044812  0.01766306  0.23497965     0.19500
C554        C  0.99633890  0.02997062  0.21162159     0.22200
C555        C  0.96584334  0.03320814  0.23174044    -0.39800
C556        C  0.98301836  0.02386253  0.27699105     0.21000
N557        N  0.03518005  0.00550870  0.34331933    -0.33100
C558        C  0.99521221  0.01098837  0.34657497    -0.10700
C559        C  0.96187427  0.02211101  0.30589511    -0.29500
N560        N  0.98709950  0.03308904  0.16891260    -0.46100
C561        C  0.02515554  0.02144837  0.16482746    -0.05300
C562        C  0.05941524  0.01211689  0.20534801    -0.22700
H563        H  0.09213934  0.99880547  0.29867535     0.19100
H564        H  0.93095441  0.04105274  0.21340470     0.17900
H565        H  0.92686077  0.02821049  0.29851488     0.14200
H566        H  0.09269432  0.99987776  0.21223483     0.14000
H567        H  0.06543639  0.99630340  0.36853616     0.32200
H568        H  0.95588312  0.03936271  0.14414102     0.35000
C569        C  0.76418878  0.98306703  0.47918729     0.20600
C570        C  0.72100963  0.96152198  0.46167520    -0.39300
C571        C  0.70104938  0.94348184  0.49157227     0.19500
C572        C  0.72266594  0.94638360  0.53560718     0.22200
C573        C  0.76615987  0.96747059  0.55311352    -0.39800
C574        C  0.78585310  0.98604302  0.52312199     0.21000
N575        N  0.79110026  0.00049575  0.45783966    -0.33100
C576        C  0.83041174  0.01372124  0.48860623    -0.10700
C577        C  0.82815346  0.00651817  0.52961945    -0.29500
N578        N  0.69366721  0.93617593  0.55586404    -0.46100
C579        C  0.65311792  0.92915798  0.52419454    -0.05300
C580        C  0.65680638  0.93071961  0.48403958    -0.22700
H581        H  0.70358664  0.96068111  0.42715648     0.19100
H582        H  0.78271614  0.97095465  0.58733226     0.17900
H583        H  0.85534058  0.00998895  0.56041834     0.14200
H584        H  0.62970849  0.93240279  0.45264045     0.14000
H585        H  0.78454806  0.99894078  0.42508273     0.32200
H586        H  0.69985952  0.94192018  0.58776376     0.35000
C587        C  0.22398826  0.00452291  0.52696365     0.20600
C588        C  0.26855910  0.02301904  0.54277407    -0.39300
C589        C  0.29021691  0.02852192  0.51325325     0.19500
C590        C  0.26893849  0.01667183  0.47124548     0.22200
C591        C  0.22449043  0.99797765  0.45554743    -0.39800
C592        C  0.20297942  0.99219304  0.48511200     0.21000
N593        N  0.19521966  0.99883453  0.54759874    -0.33100
C594        C  0.15569168  0.98321219  0.51840518    -0.10700
C595        C  0.15934624  0.97771383  0.47935437    -0.29500
N596        N  0.29805853  0.01964544  0.45125116    -0.46100
C597        C  0.33831816  0.03191099  0.48118857    -0.05300
C598        C  0.33467542  0.03932043  0.51985004    -0.22700
H599        H  0.28529587  0.03172939  0.57574062     0.19100
H600        H  0.20811303  0.98797873  0.42294699     0.17900
H601        H  0.13276548  0.96869614  0.44964615     0.14200
H602        H  0.36166807  0.04526099  0.55023589     0.14000
H603        H  0.20132424  0.00820703  0.57848830     0.32200
H604        H  0.29178480  0.00868821  0.42084526     0.35000
C605        C  0.88515206  0.78425454  0.47715845     0.20600
C606        C  0.86679642  0.74084004  0.45746494    -0.39300
C607        C  0.85295504  0.70218337  0.48299979     0.19500
C608        C  0.85718403  0.70646065  0.52495105     0.22200
C609        C  0.87553798  0.74984016  0.54462448    -0.39800
C610        C  0.88931587  0.78845699  0.51910548     0.21000
N611        N  0.89944772  0.82676760  0.45934941    -0.33100
C612        C  0.91269464  0.85834959  0.49014282    -0.10700
C613        C  0.90703894  0.83562914  0.52792802    -0.29500
N614        N  0.84261025  0.66415765  0.54275326    -0.46100
C615        C  0.82900846  0.63247682  0.51203120    -0.05300
C616        C  0.83482931  0.65502488  0.47420680    -0.22700
H617        H  0.86345695  0.73744643  0.42465493     0.19100
H618        H  0.87876823  0.75331349  0.57738935     0.17900
H619        H  0.91337272  0.85209604  0.55728738     0.14200
H620        H  0.82816147  0.63853925  0.44479184     0.14000
H621        H  0.89889510  0.83433760  0.42775588     0.32200
H622        H  0.84313107  0.65680379  0.57434343     0.35000
C623        C  0.12124276  0.29347406  0.47413738     0.20600
C624        C  0.10134181  0.25027787  0.45496947    -0.39300
C625        C  0.08904957  0.21201201  0.48173025     0.19500
C626        C  0.09591767  0.21635369  0.52436086     0.22200
C627        C  0.11587985  0.25962733  0.54359166    -0.39800
C628        C  0.12828406  0.29792985  0.51679377     0.21000
N629        N  0.13627038  0.33483336  0.45560817    -0.33100
C630        C  0.15312466  0.36595576  0.48666925    -0.10700
C631        C  0.14869809  0.34423919  0.52529541    -0.29500
N632        N  0.08313537  0.17377231  0.54338281    -0.46100
C633        C  0.06833594  0.14203175  0.51267461    -0.05300
C634        C  0.07129518  0.16474059  0.47375505    -0.22700
H635        H  0.09637265  0.24646348  0.42180878     0.19100
H636        H  0.12186225  0.26297866  0.57707285     0.17900
H637        H  0.15877727  0.36033467  0.55541026     0.14200
H638        H  0.06346511  0.14811831  0.44419111     0.14000
H639        H  0.13484115  0.34158789  0.42369861     0.32200
H640        H  0.08606066  0.16612564  0.57570455     0.35000
loop_ 
_geom_bond_atom_site_label_1 
_geom_bond_atom_site_label_2 
_geom_bond_distance 
_geom_bond_site_symmetry_2 
_ccdc_geom_bond_type 
O1           Ni7   1.912       .  S
O1           C22   1.267   1_565  A
O2          Ni25   1.916   1_565  S
O2           C11   1.268       .  A
O3           Ni7   1.922   1_545  S
O3          Ni25   1.914       .  S
O3          Ni19   1.910   1_645  S
O3           H26   0.966       .  S
C4           O21   1.265       .  A
C4           O13   1.268   1_565  A
C4          C594   1.451       .  S
O5          Ni24   1.921       .  S
O5           C11   1.269   1_445  A
O6          Ni24   1.913       .  S
O6            C8   1.274       .  A
Ni7          O10   1.907       .  S
Ni7          O12   1.911       .  S
C8           O18   1.279       .  A
C8          C633   1.475       .  S
O9          Ni25   1.886       .  S
O9           C15   1.262       .  A
O10          C15   1.266   1_565  A
C11         C543   1.476       .  S
O12          C14   1.273       .  A
O13         Ni24   1.919       .  S
C14          O20   1.278       .  A
C14         C612   1.477       .  S
C15         C576   1.445       .  S
H16          O17   0.966       .  S
O17         Ni25   1.908   1_465  S
O17         Ni19   1.910       .  S
O17         Ni24   1.920   1_565  S
O18         Ni19   1.946   1_545  S
Ni19         O23   1.914   1_565  S
Ni19         O21   1.890       .  S
O20         Ni25   1.946   1_565  S
C22          O23   1.269   1_655  A
C22         C558   1.470       .  S
O27         Ni33   1.901       .  S
O27          C48   1.265       .  A
O28         Ni51   1.905       .  S
O28          C37   1.266       .  A
O29         Ni33   1.920   1_545  S
O29         Ni51   1.907   1_545  S
O29         Ni45   1.918   1_545  S
O29          H52   0.966       .  S
C30          O47   1.264       .  A
C30          O39   1.269       .  A
C30         C579   1.452       .  S
O31         Ni50   1.910   1_545  S
O31          C37   1.267   1_545  A
O32         Ni50   1.902   1_545  S
O32          C34   1.268       .  A
Ni33         O36   1.909       .  S
Ni33         O38   1.908       .  S
C34          O44   1.278       .  A
C34         C522   1.483       .  S
O35         Ni51   1.892   1_545  S
O35          C41   1.261       .  A
O36          C41   1.265   1_565  A
C37         C468   1.461   1_565  S
O38          C40   1.273       .  A
O39         Ni50   1.912       .  S
C40          O46   1.283       .  A
C40         C507   1.482       .  S
C41         C597   1.449       .  S
H42          O43   0.965       .  S
O43         Ni51   1.900       .  S
O43         Ni45   1.903       .  S
O43         Ni50   1.913       .  S
O44         Ni45   1.955   1_545  S
Ni45         O49   1.902       .  S
Ni45         O47   1.888       .  S
O46         Ni51   1.963       .  S
C48          O49   1.265       .  A
C48         C486   1.458       .  S
O53         Ni59   1.920       .  S
O53          C74   1.270       .  A
O54         Ni77   1.916       .  S
O54          C63   1.266       .  A
O55         Ni59   1.919       .  S
O55         Ni77   1.914       .  S
O55         Ni71   1.909       .  S
O55          H78   0.965       .  S
C56          O73   1.265       .  A
C56          O65   1.268       .  A
C56         C432   1.453       .  S
O57         Ni76   1.921       .  S
O57          C63   1.269       .  A
O58         Ni76   1.915       .  S
O58          C60   1.274       .  A
Ni59         O62   1.918       .  S
Ni59         O64   1.911       .  S
C60          O70   1.280       .  A
C60         C504   1.483       .  S
O61         Ni77   1.883       .  S
O61          C67   1.260       .  A
O62          C67   1.269       .  A
C63         C396   1.478       .  S
O64          C66   1.272       .  A
O65         Ni76   1.912       .  S
C66          O72   1.277       .  A
C66         C630   1.475       .  S
C67         C450   1.449       .  S
H68          O69   0.967       .  S
O69         Ni77   1.907       .  S
O69         Ni71   1.918       .  S
O69         Ni76   1.918       .  S
O70         Ni71   1.954       .  S
Ni71         O75   1.921       .  S
Ni71         O73   1.895       .  S
O72         Ni77   1.946       .  S
C74          O75   1.271       .  A
C74         C417   1.479       .  S
O79         Ni85   1.916       .  S
O79         C100   1.269       .  A
O80        Ni103   1.917       .  S
O80          C89   1.269       .  A
O81         Ni85   1.924       .  S
O81        Ni103   1.914       .  S
O81         Ni97   1.914       .  S
O81         H104   0.967       .  S
C82          O99   1.265       .  A
C82          O91   1.268       .  A
C82         C453   1.449       .  S
O83        Ni102   1.920       .  S
O83          C89   1.269       .  A
O84        Ni102   1.914       .  S
O84          C86   1.272       .  A
Ni85         O88   1.912       .  S
Ni85         O90   1.915       .  S
C86          O96   1.277       .  A
C86         C615   1.481       .  S
O87        Ni103   1.888       .  S
O87          C93   1.262       .  A
O88          C93   1.267       .  A
C89         C360   1.476       .  S
O90          C92   1.274       .  A
O91        Ni102   1.915       .  S
C92          O98   1.281       .  A
C92         C525   1.483       .  S
C93         C435   1.450       .  S
H94          O95   0.965       .  S
O95        Ni103   1.905       .  S
O95         Ni97   1.911       .  S
O95        Ni102   1.921       .  S
O96         Ni97   1.949       .  S
Ni97        O101   1.915       .  S
Ni97         O99   1.887       .  S
O98        Ni103   1.954       .  S
C100        O101   1.267       .  A
C100        C378   1.473       .  S
O105       Ni111   1.933       .  S
O105        C126   1.269   1_545  A
O106       Ni129   1.902       .  S
O106        C115   1.266   1_655  A
O107       Ni111   1.918       .  S
O107       Ni129   1.905   1_556  S
O107       Ni123   1.903   1_645  S
O107        H130   0.965   1_655  S
C108        O125   1.271   1_554  A
C108        O117   1.274       .  A
C108        C342   1.464       .  S
O109       Ni128   1.935       .  S
O109        C115   1.271   1_565  A
O110       Ni128   1.910       .  S
O110        C112   1.270       .  A
Ni111       O114   1.917       .  S
Ni111       O116   1.908       .  S
C112        O122   1.269       .  A
C112        C306   1.467       .  S
O113       Ni129   1.914       .  S
O113        C119   1.275   1_554  A
O114        C119   1.274       .  A
C115        C561   1.471       .  S
O116        C118   1.269       .  A
O117       Ni128   1.923       .  S
C118        O124   1.270   1_556  A
C118        C288   1.469       .  S
C119        C324   1.467       .  S
H120        O121   0.965   1_655  S
O121       Ni129   1.911   1_465  S
O121       Ni123   1.907   1_554  S
O121       Ni128   1.924       .  S
O122       Ni123   1.913   1_554  S
Ni123       O127   1.906       .  S
Ni123       O125   1.900       .  S
O124       Ni129   1.916       .  S
C126        O127   1.265   1_655  A
C126        C540   1.473       .  S
O131       Ni137   1.926       .  S
O131        C152   1.268       .  A
O132       Ni155   1.896   1_565  S
O132        C141   1.266   1_565  A
O133       Ni137   1.924   1_545  S
O133       Ni155   1.907   1_554  S
O133       Ni149   1.910   1_545  S
O133        H156   0.966       .  S
C134        O151   1.269   1_556  A
C134        O143   1.270       .  A
C134        C309   1.471   1_556  S
O135       Ni154   1.920       .  S
O135        C141   1.268       .  A
O136       Ni154   1.909       .  S
O136        C138   1.270       .  A
Ni137       O140   1.912       .  S
Ni137       O142   1.909       .  S
C138        O148   1.273   1_556  A
C138        C255   1.472       .  S
O139       Ni155   1.924       .  S
O139        C145   1.275   1_556  A
O140        C145   1.271   1_565  A
C141        C471   1.462       .  S
O142        C144   1.270       .  A
O143       Ni154   1.914   1_565  S
C144        O150   1.272   1_554  A
C144        C270   1.471       .  S
C145        C291   1.472       .  S
H146        O147   0.966       .  S
O147       Ni155   1.924   1_565  S
O147       Ni149   1.910   1_556  S
O147       Ni154   1.926   1_565  S
O148       Ni149   1.926   1_545  S
Ni149       O153   1.884   1_565  S
Ni149       O151   1.915       .  S
O150       Ni155   1.926   1_565  S
C152        O153   1.261   1_565  A
C152        C489   1.458       .  S
O157       Ni163   1.946       .  S
O157        C178   1.277       .  A
O158       Ni181   1.887       .  S
O158        C167   1.265       .  A
O159       Ni163   1.923       .  S
O159       Ni181   1.899   1_556  S
O159       Ni175   1.914       .  S
O159        H182   0.967       .  S
C160        O177   1.273   1_554  A
C160        O169   1.276       .  A
C160        C252   1.472       .  S
O161       Ni180   1.955       .  S
O161        C167   1.278       .  A
O162       Ni180   1.939       .  S
O162        C164   1.278       .  A
Ni163       O166   1.921       .  S
Ni163       O168   1.939       .  S
C164        O174   1.281   1_554  A
C164        C216   1.518       .  S
O165       Ni181   1.909       .  S
O165        C171   1.274   1_554  A
O166        C171   1.276       .  A
C167        C414   1.479       .  S
O168        C170   1.277       .  A
O169       Ni180   1.931       .  S
C170        O176   1.282   1_556  A
C170        C234   1.519       .  S
C171        C345   1.465       .  S
H172        O173   0.967       .  S
O173       Ni181   1.916       .  S
O173       Ni175   1.906   1_554  S
O173       Ni180   1.926       .  S
O174       Ni175   1.967       .  S
Ni175       O179   1.888       .  S
Ni175       O177   1.911       .  S
O176       Ni181   1.962       .  S
C178        O179   1.266       .  A
C178        C399   1.474       .  S
O183       Ni189   1.958       .  S
O183        C204   1.279       .  A
O184       Ni207   1.901       .  S
O184        C193   1.268       .  A
O185       Ni189   1.926       .  S
O185       Ni207   1.906   1_556  S
O185       Ni201   1.919       .  S
O185        H208   0.967       .  S
C186        O203   1.276   1_554  A
C186        O195   1.276       .  A
C186        C327   1.469       .  S
O187       Ni206   1.941       .  S
O187        C193   1.276       .  A
O188       Ni206   1.940       .  S
O188        C190   1.276       .  A
Ni189       O192   1.935       .  S
Ni189       O194   1.938       .  S
C190        O200   1.280   1_554  A
C190        C237   1.517       .  S
O191       Ni207   1.909       .  S
O191        C197   1.274   1_554  A
O192        C197   1.278       .  A
C193        C381   1.478       .  S
O194        C196   1.278       .  A
O195       Ni206   1.918       .  S
C196        O202   1.282   1_556  A
C196        C219   1.517       .  S
C197        C273   1.473       .  S
H198        O199   0.967       .  S
O199       Ni207   1.916       .  S
O199       Ni201   1.902   1_554  S
O199       Ni206   1.923       .  S
O200       Ni201   1.958       .  S
Ni201       O205   1.891       .  S
Ni201       O203   1.919       .  S
O202       Ni207   1.965       .  S
C204        O205   1.266       .  A
C204        C363   1.481       .  S
C209        C214   1.381   1_556  A
C209        C210   1.419       .  A
C209        N215   1.358       .  A
C210        C211   1.419       .  A
C210        H221   1.082       .  S
C211        C220   1.397       .  A
C211        C212   1.381   1_556  A
C212        C213   1.418       .  A
C212        N218   1.357       .  A
C213        C214   1.418       .  A
C213        H222   1.082       .  S
C214        C217   1.395       .  A
N215        C216   1.366   1_556  A
N215        H225   1.045       .  S
C216        C217   1.407       .  A
C217        H223   1.082       .  S
N218        C219   1.365   1_554  A
N218        H226   1.045       .  S
C219        C220   1.408       .  A
C220        H224   1.082       .  S
C227        C232   1.380   1_556  A
C227        C228   1.419   1_455  A
C227        N233   1.357       .  A
C228        C229   1.418       .  A
C228        H239   1.082       .  S
C229        C238   1.397       .  A
C229        C230   1.381   1_556  A
C230        C231   1.419   1_655  A
C230        N236   1.358       .  A
C231        C232   1.419       .  A
C231        H240   1.082       .  S
C232        C235   1.398       .  A
N233        C234   1.366       .  A
N233        H243   1.044       .  S
C234        C235   1.408   1_556  A
C235        H241   1.082       .  S
N236        C237   1.365       .  A
N236        H244   1.044       .  S
C237        C238   1.407   1_554  A
C238        H242   1.082       .  S
C245        C250   1.384   1_554  A
C245        C246   1.401       .  A
C245        N251   1.341       .  A
C246        C247   1.400       .  A
C246        H257   1.082       .  S
C247        C256   1.375       .  A
C247        C248   1.384   1_554  A
C248        C249   1.406       .  A
C248        N254   1.345       .  A
C249        C250   1.405       .  A
C249        H258   1.082       .  S
C250        C253   1.381       .  A
N251        C252   1.355       .  A
N251        H261   1.045       .  S
C252        C253   1.398   1_554  A
C253        H259   1.082       .  S
N254        C255   1.357       .  A
N254        H262   1.045       .  S
C255        C256   1.396   1_556  A
C256        H260   1.083       .  S
C263        C268   1.384   1_554  A
C263        C264   1.404       .  A
C263        N269   1.344       .  A
C264        C265   1.403       .  A
C264        H275   1.082       .  S
C265        C274   1.378       .  A
C265        C266   1.384   1_554  A
C266        C267   1.403       .  A
C266        N272   1.343       .  A
C267        C268   1.402       .  A
C267        H276   1.082       .  S
C268        C271   1.377       .  A
N269        C270   1.356       .  A
N269        H279   1.045       .  S
C270        C271   1.396   1_554  A
C271        H277   1.083       .  S
N272        C273   1.356       .  A
N272        H280   1.045       .  S
C273        C274   1.396   1_556  A
C274        H278   1.083       .  S
C281        C286   1.384   1_564  A
C281        C282   1.399       .  A
C281        N287   1.340       .  A
C282        C283   1.399   1_565  A
C282        H293   1.083       .  S
C283        C292   1.371       .  A
C283        C284   1.384   1_554  A
C284        C285   1.406       .  A
C284        N290   1.348       .  A
C285        C286   1.406       .  A
C285        H294   1.082       .  S
C286        C289   1.380       .  A
N287        C288   1.355   1_564  A
N287        H297   1.045       .  S
C288        C289   1.398       .  A
C289        H295   1.082       .  S
N290        C291   1.357   1_556  A
N290        H298   1.044       .  S
C291        C292   1.396       .  A
C292        H296   1.083       .  S
C299        C304   1.385   1_545  A
C299        C300   1.397   1_554  A
C299        N305   1.338   1_554  A
C300        C301   1.397   1_545  A
C300        H311   1.083       .  S
C301        C310   1.369       .  A
C301        C302   1.384   1_556  A
C302        C303   1.406       .  A
C302        N308   1.348       .  A
C303        C304   1.406       .  A
C303        H312   1.082       .  S
C304        C307   1.381       .  A
N305        C306   1.354   1_546  A
N305        H315   1.045       .  S
C306        C307   1.397       .  A
C307        H313   1.082       .  S
N308        C309   1.358       .  A
N308        H316   1.044       .  S
C309        C310   1.393   1_554  A
C310        H314   1.083       .  S
C317        C322   1.384   1_554  A
C317        C318   1.399       .  A
C317        N323   1.342       .  A
C318        C319   1.399       .  A
C318        H329   1.082       .  S
C319        C328   1.372       .  A
C319        C320   1.384   1_554  A
C320        C321   1.404       .  A
C320        N326   1.344       .  A
C321        C322   1.404       .  A
C321        H330   1.082       .  S
C322        C325   1.376       .  A
N323        C324   1.354   1_554  A
N323        H333   1.045       .  S
C324        C325   1.398       .  A
C325        H331   1.083       .  S
N326        C327   1.357   1_556  A
N326        H334   1.045       .  S
C327        C328   1.395       .  A
C328        H332   1.083       .  S
C335        C340   1.384   1_554  A
C335        C336   1.403       .  A
C335        N341   1.341       .  A
C336        C337   1.402       .  A
C336        H347   1.082       .  S
C337        C346   1.377       .  A
C337        C338   1.385   1_554  A
C338        C339   1.399       .  A
C338        N344   1.339       .  A
C339        C340   1.397       .  A
C339        H348   1.082       .  S
C340        C343   1.373       .  A
N341        C342   1.356       .  A
N341        H351   1.045       .  S
C342        C343   1.393   1_554  A
C343        H349   1.083       .  S
N344        C345   1.354       .  A
N344        H352   1.045       .  S
C345        C346   1.396   1_556  A
C346        H350   1.083       .  S
C353        C358   1.384       .  A
C353        C354   1.400       .  A
C353        N359   1.340       .  A
C354        C355   1.399       .  A
C354        H365   1.083       .  S
C355        C364   1.373       .  A
C355        C356   1.384       .  A
C356        C357   1.411       .  A
C356        N362   1.351       .  A
C357        C358   1.410       .  A
C357        H366   1.082       .  S
C358        C361   1.388       .  A
N359        C360   1.355       .  A
N359        H369   1.045       .  S
C360        C361   1.399       .  A
C361        H367   1.082       .  S
N362        C363   1.359       .  A
N362        H370   1.044       .  S
C363        C364   1.396       .  A
C364        H368   1.083       .  S
C371        C376   1.384       .  A
C371        C372   1.410       .  A
C371        N377   1.351       .  A
C372        C373   1.411       .  A
C372        H383   1.082       .  S
C373        C382   1.387       .  A
C373        C374   1.385       .  A
C374        C375   1.399       .  A
C374        N380   1.340       .  A
C375        C376   1.397       .  A
C375        H384   1.083       .  S
C376        C379   1.371       .  A
N377        C378   1.359       .  A
N377        H387   1.044       .  S
C378        C379   1.392       .  A
C379        H385   1.083       .  S
N380        C381   1.354       .  A
N380        H388   1.045       .  S
C381        C382   1.401       .  A
C382        H386   1.082       .  S
C389        C394   1.384       .  A
C389        C390   1.412       .  A
C389        N395   1.352       .  A
C390        C391   1.412       .  A
C390        H401   1.082       .  S
C391        C400   1.389       .  A
C391        C392   1.384       .  A
C392        C393   1.397       .  A
C392        N398   1.337       .  A
C393        C394   1.396       .  A
C393        H402   1.083       .  S
C394        C397   1.370       .  A
N395        C396   1.361       .  A
N395        H405   1.044       .  S
C396        C397   1.392       .  A
C397        H403   1.083       .  S
N398        C399   1.354       .  A
N398        H406   1.045       .  S
C399        C400   1.401       .  A
C400        H404   1.082       .  S
C407        C412   1.384       .  A
C407        C408   1.410       .  A
C407        N413   1.350       .  A
C408        C409   1.409       .  A
C408        H419   1.082       .  S
C409        C418   1.387       .  A
C409        C410   1.384       .  A
C410        C411   1.401       .  A
C410        N416   1.341       .  A
C411        C412   1.400       .  A
C411        H420   1.083       .  S
C412        C415   1.374       .  A
N413        C414   1.358       .  A
N413        H423   1.044       .  S
C414        C415   1.396       .  A
C415        H421   1.083       .  S
N416        C417   1.356       .  A
N416        H424   1.045       .  S
C417        C418   1.399       .  A
C418        H422   1.082       .  S
C425        C430   1.386       .  A
C425        C426   1.397       .  A
C425        N431   1.339       .  A
C426        C427   1.396       .  A
C426        H437   1.083       .  S
C427        C436   1.368       .  A
C427        C428   1.385       .  A
C428        C429   1.394       .  A
C428        N434   1.336       .  A
C429        C430   1.395       .  A
C429        H438   1.083       .  S
C430        C433   1.365       .  A
N431        C432   1.353       .  A
N431        H441   1.045       .  S
C432        C433   1.392       .  A
C433        H439   1.083       .  S
N434        C435   1.352       .  A
N434        H442   1.045       .  S
C435        C436   1.392       .  A
C436        H440   1.083       .  S
C443        C448   1.386       .  A
C443        C444   1.393   1_455  A
C443        N449   1.333       .  A
C444        C445   1.390       .  A
C444        H455   1.083       .  S
C445        C454   1.365       .  A
C445        C446   1.384       .  A
C446        C447   1.399   1_655  A
C446        N452   1.337       .  A
C447        C448   1.398       .  A
C447        H456   1.083       .  S
C448        C451   1.372       .  A
N449        C450   1.350       .  A
N449        H459   1.045       .  S
C450        C451   1.394       .  A
C451        H457   1.083       .  S
N452        C453   1.355       .  A
N452        H460   1.045       .  S
C453        C454   1.389       .  A
C454        H458   1.083       .  S
C461        C466   1.385       .  A
C461        C462   1.395       .  A
C461        N467   1.333       .  A
C462        C463   1.392       .  A
C462        H473   1.083       .  S
C463        C472   1.371       .  A
C463        C464   1.385       .  A
C464        C465   1.407       .  A
C464        N470   1.342       .  A
C465        C466   1.404       .  A
C465        H474   1.082       .  S
C466        C469   1.384       .  A
N467        C468   1.352       .  A
N467        H477   1.045       .  S
C468        C469   1.396       .  A
C469        H475   1.082       .  S
N470        C471   1.357       .  A
N470        H478   1.045       .  S
C471        C472   1.389       .  A
C472        H476   1.083       .  S
C479        C484   1.386       .  A
C479        C480   1.395   1_565  A
C479        N485   1.334       .  A
C480        C481   1.392   1_545  A
C480        H491   1.083       .  S
C481        C490   1.368       .  A
C481        C482   1.385       .  A
C482        C483   1.404       .  A
C482        N488   1.342       .  A
C483        C484   1.402       .  A
C483        H492   1.082       .  S
C484        C487   1.380       .  A
N485        C486   1.352       .  A
N485        H495   1.045   1_565  S
C486        C487   1.395       .  A
C487        H493   1.082       .  S
N488        C489   1.356       .  A
N488        H496   1.045       .  S
C489        C490   1.389       .  A
C490        H494   1.083   1_565  S
C497        C502   1.384       .  A
C497        C498   1.407       .  A
C497        N503   1.347       .  A
C498        C499   1.406       .  A
C498        H509   1.082       .  S
C499        C508   1.383       .  A
C499        C500   1.384       .  A
C500        C501   1.408       .  A
C500        N506   1.346       .  A
C501        C502   1.407       .  A
C501        H510   1.082       .  S
C502        C505   1.383       .  A
N503        C504   1.358       .  A
N503        H513   1.045       .  S
C504        C505   1.399       .  A
C505        H511   1.082       .  S
N506        C507   1.359       .  A
N506        H514   1.045       .  S
C507        C508   1.397       .  A
C508        H512   1.082       .  S
C515        C520   1.383       .  A
C515        C516   1.404       .  A
C515        N521   1.343       .  A
C516        C517   1.403       .  A
C516        H527   1.082       .  S
C517        C526   1.380       .  A
C517        C518   1.383       .  A
C518        C519   1.411       .  A
C518        N524   1.349       .  A
C519        C520   1.409       .  A
C519        H528   1.082       .  S
C520        C523   1.388       .  A
N521        C522   1.357       .  A
N521        H531   1.045       .  S
C522        C523   1.400       .  A
C523        H529   1.082       .  S
N524        C525   1.360       .  A
N524        H532   1.044       .  S
C525        C526   1.397       .  A
C526        H530   1.083       .  S
C533        C538   1.384   1_655  A
C533        C534   1.409       .  A
C533        N539   1.346       .  A
C534        C535   1.407       .  A
C534        H545   1.082       .  S
C535        C544   1.387       .  A
C535        C536   1.384   1_655  A
C536        C537   1.402       .  A
C536        N542   1.340       .  A
C537        C538   1.399       .  A
C537        H546   1.082       .  S
C538        C541   1.377       .  A
N539        C540   1.358       .  A
N539        H549   1.045       .  S
C540        C541   1.394   1_655  A
C541        H547   1.083       .  S
N542        C543   1.355   1_455  A
N542        H550   1.045       .  S
C543        C544   1.399       .  A
C544        H548   1.082       .  S
C551        C556   1.385   1_455  A
C551        C552   1.405       .  A
C551        N557   1.346       .  A
C552        C553   1.405       .  A
C552        H563   1.082   1_545  S
C553        C562   1.380       .  A
C553        C554   1.385   1_455  A
C554        C555   1.401       .  A
C554        N560   1.341       .  A
C555        C556   1.400       .  A
C555        H564   1.083       .  S
C556        C559   1.373       .  A
N557        C558   1.355   1_455  A
N557        H567   1.045   1_545  S
C558        C559   1.395       .  A
C559        H565   1.083       .  S
N560        C561   1.354   1_655  A
N560        H568   1.045       .  S
C561        C562   1.397       .  A
C562        H566   1.082   1_545  S
C569        C574   1.384       .  A
C569        C570   1.394       .  A
C569        N575   1.334   1_565  A
C570        C571   1.394       .  A
C570        H581   1.083       .  S
C571        C580   1.367       .  A
C571        C572   1.386       .  A
C572        C573   1.398       .  A
C572        N578   1.336       .  A
C573        C574   1.394       .  A
C573        H582   1.083       .  S
C574        C577   1.369   1_565  A
N575        C576   1.352       .  A
N575        H585   1.045   1_545  S
C576        C577   1.391       .  A
C577        H583   1.083       .  S
N578        C579   1.353       .  A
N578        H586   1.045       .  S
C579        C580   1.392       .  A
C580        H584   1.083       .  S
C587        C592   1.385   1_545  A
C587        C588   1.398       .  A
C587        N593   1.337   1_545  A
C588        C589   1.396       .  A
C588        H599   1.083       .  S
C589        C598   1.371       .  A
C589        C590   1.386       .  A
C590        C591   1.396   1_545  A
C590        N596   1.334       .  A
C591        C592   1.393       .  A
C591        H600   1.083       .  S
C592        C595   1.369       .  A
N593        C594   1.354       .  A
N593        H603   1.045   1_565  S
C594        C595   1.390       .  A
C595        H601   1.083       .  S
N596        C597   1.352       .  A
N596        H604   1.045       .  S
C597        C598   1.391       .  A
C598        H602   1.083       .  S
C605        C610   1.384       .  A
C605        C606   1.406       .  A
C605        N611   1.346       .  A
C606        C607   1.406       .  A
C606        H617   1.082       .  S
C607        C616   1.381       .  A
C607        C608   1.384       .  A
C608        C609   1.405       .  A
C608        N614   1.346       .  A
C609        C610   1.404       .  A
C609        H618   1.082       .  S
C610        C613   1.379       .  A
N611        C612   1.357       .  A
N611        H621   1.045       .  S
C612        C613   1.397       .  A
C613        H619   1.083       .  S
N614        C615   1.357       .  A
N614        H622   1.045       .  S
C615        C616   1.399       .  A
C616        H620   1.082       .  S
C623        C628   1.384       .  A
C623        C624   1.403       .  A
C623        N629   1.344       .  A
C624        C625   1.402       .  A
C624        H635   1.082       .  S
C625        C634   1.376       .  A
C625        C626   1.384       .  A
C626        C627   1.406       .  A
C626        N632   1.346       .  A
C627        C628   1.405       .  A
C627        H636   1.082       .  S
C628        C631   1.379       .  A
N629        C630   1.356       .  A
N629        H639   1.045       .  S
C630        C631   1.398       .  A
C631        H637   1.083       .  S
N632        C633   1.357       .  A
N632        H640   1.045       .  S
C633        C634   1.396       .  A
C634        H638   1.083       .  S
