geometry optimzed in LAMMPS
_audit_creation_date              2020-11-30 
_audit_creation_method            'lammps2cif' 
_symmetry_space_group_name_H-M    'P1' 
_symmetry_Int_Tables_number       1 
_symmetry_cell_setting            triclinic 
loop_ 
_symmetry_equiv_pos_as_xyz 
  x,y,z 
_cell_length_a                    64.39604884 
_cell_length_b                    65.11029587180815 
_cell_length_c                    39.02841675893143 
_cell_angle_alpha                 85.90730343742462 
_cell_angle_beta                  91.4770773124671 
_cell_angle_gamma                 119.21195915499665 
loop_ 
_atom_site_label 
_atom_site_type_symbol 
_atom_site_fract_x 
_atom_site_fract_y 
_atom_site_fract_z 
_atom_site_charge 
Zr1        Zr  0.81275606  0.33492781  0.18528154     2.17500
O2          O  0.78351374  0.30880490  0.22891408    -0.51100
O3          O  0.80178879  0.36607735  0.18730620    -0.74300
O4          O  0.82666686  0.34272291  0.24408683    -0.81100
O5          O  0.76903530  0.30977751  0.11251981    -0.82800
O6          O  0.86289941  0.34499237  0.24544038    -0.78500
O7          O  0.77123547  0.31454078  0.16977199    -0.90100
O8          O  0.82779013  0.39773327  0.15340809    -0.76100
O9          O  0.85126379  0.36877742  0.18210232    -0.85600
O10         O  0.81564218  0.35400684  0.12998439    -0.85200
O11         O  0.83962756  0.31894001  0.19161542    -0.72000
O12         O  0.80696770  0.30597188  0.14537455    -0.84100
Zr13       Zr  0.87703901  0.34647254  0.09123302     2.26400
Zr14       Zr  0.87824611  0.35345340  0.18705334     2.06300
Zr15       Zr  0.80986070  0.32577217  0.09041265     2.10000
Zr16       Zr  0.85436652  0.38769066  0.12647700     1.78800
O17         O  0.78777139  0.28825642  0.06421629    -0.92900
O18         O  0.87961851  0.42166744  0.15907269    -0.40800
O19         O  0.84856084  0.36014122  0.08521629    -0.77400
O20         O  0.88331463  0.37476750  0.13235332    -0.96100
O21         O  0.87380252  0.32618324  0.14566579    -0.89400
O22         O  0.83847086  0.31230971  0.09417060    -0.92200
C23         C  0.80943631  0.38700047  0.17301077     1.01500
C24         C  0.75939773  0.30756112  0.14209892     1.14500
C25         C  0.84460941  0.34344642  0.26022081     1.05200
O26         O  0.90476073  0.39516951  0.19447344    -0.94400
O27         O  0.90823554  0.34488156  0.16754926    -0.90100
O28         O  0.91740563  0.36309527  0.11487301    -0.83300
C29         C  0.92350307  0.35755003  0.14419907     1.11900
O30         O  0.80852027  0.25936298  0.18705678    -0.96300
Zr31       Zr  0.83573728  0.29239105  0.14860526     1.88900
O32         O  0.88312637  0.31411891  0.07819518    -0.73000
O33         O  0.90729126  0.35473731  0.22960625    -0.52300
O34         O  0.85585786  0.27936863  0.19132240    -0.96900
O35         O  0.80666986  0.25879914  0.11822314    -0.54200
O36         O  0.85976503  0.28192281  0.11319979    -0.73500
C37         C  0.87561072  0.29264869  0.08928623     0.98800
O38         O  0.90690213  0.37155991  0.04780786    -0.62300
O39         O  0.79030582  0.34346208  0.05472729    -0.57100
O40         O  0.86444867  0.34705174  0.03185373    -0.93800
O41         O  0.82475372  0.33474463  0.03228939    -0.92200
O42         O  0.83874359  0.40371800  0.08092169    -0.92600
O43         O  0.88498904  0.41823570  0.08858626    -0.91400
C44         C  0.84470637  0.34220824  0.01681424     1.17700
H45         H  0.80324774  0.35812727  0.12596074     0.33600
H46         H  0.89908531  0.38822831  0.12974148     0.44500
H47         H  0.83638679  0.30247767  0.07557102     0.38000
H48         H  0.83713582  0.31034540  0.21370157     0.34500
H49         H  0.87479140  0.43359288  0.15173283     0.26300
H50         H  0.90808595  0.36547763  0.24694759     0.32200
H51         H  0.86769725  0.29395423  0.20172913     0.38100
H52         H  0.82295407  0.39042434  0.07572110     0.32600
H53         H  0.77640749  0.32997618  0.04496436     0.31400
H54         H  0.77953525  0.29151073  0.04455949     0.33100
H55         H  0.81220596  0.26201885  0.09401284     0.32100
H56         H  0.88457236  0.41012749  0.06784090     0.36100
H57         H  0.91612439  0.38702658  0.05783519     0.28800
H58         H  0.78145296  0.31918723  0.24423284     0.33100
H59         H  0.81107108  0.24601193  0.18227966     0.35900
H60         H  0.78334742  0.34952678  0.07093028     0.28500
H61         H  0.91804588  0.36518482  0.04718342     0.41400
H62         H  0.89965063  0.39798201  0.21655441     0.31400
H63         H  0.87380571  0.41675598  0.18310073     0.39100
H64         H  0.79209562  0.26030409  0.11777453     0.30900
H65         H  0.89990745  0.33886798  0.24175301     0.31000
H66         H  0.79131550  0.30134991  0.24312209     0.31200
Zr67       Zr  0.80747800  0.32751120  0.68534788     2.17500
O68         O  0.77983603  0.29839490  0.72812725    -0.51100
O69         O  0.79331241  0.35646815  0.68446592    -0.74300
O70         O  0.81915069  0.33854839  0.74385356    -0.81100
O71         O  0.76577628  0.29886507  0.61159747    -0.82800
O72         O  0.85913374  0.35328300  0.74673572    -0.78500
O73         O  0.76681704  0.30624466  0.66769273    -0.90100
O74         O  0.81951292  0.38888891  0.65199957    -0.76100
O75         O  0.84429365  0.36320889  0.68201482    -0.85600
O76         O  0.80999525  0.34459189  0.62869851    -0.85200
O77         O  0.83655951  0.31472297  0.69564222    -0.72000
O78         O  0.80525894  0.29836838  0.64834191    -0.84100
Zr79       Zr  0.87529609  0.34167778  0.59623540     2.26400
Zr80       Zr  0.87326071  0.35077043  0.69145683     2.06300
Zr81       Zr  0.80726641  0.31598748  0.59189766     2.10000
Zr82       Zr  0.84722761  0.38002431  0.62505153     1.78800
O83         O  0.78705484  0.27717030  0.56903457    -0.92900
O84         O  0.87419586  0.41602338  0.65239800    -0.40800
O85         O  0.84452250  0.35214166  0.58612840    -0.77400
O86         O  0.87775236  0.36966544  0.63520112    -0.96100
O87         O  0.87276514  0.32399909  0.65235925    -0.89400
O88         O  0.83808293  0.30575274  0.59963595    -0.92200
C89         C  0.80053092  0.37738688  0.67032394     1.01500
C90         C  0.75557054  0.29778272  0.64018389     1.14500
C91         C  0.83888909  0.34737860  0.76013986     1.05200
O92         O  0.90077340  0.39022500  0.70860804    -0.94400
O93         O  0.91309750  0.36120969  0.67738585    -0.90100
O94         O  0.91554895  0.35611569  0.62070528    -0.83300
C95         C  0.92455610  0.36187482  0.65078909     1.11900
O96         O  0.81813185  0.25931185  0.70403620    -0.96300
Zr97       Zr  0.83652980  0.28808739  0.65548071     1.88900
O98         O  0.88205524  0.30981978  0.58216604    -0.73000
O99         O  0.88636487  0.33068692  0.73465056    -0.52300
O100        O  0.86416308  0.28039091  0.69071889    -0.96900
O101        O  0.80442311  0.25112170  0.63642060    -0.54200
O102        O  0.85822140  0.27700127  0.61591265    -0.73500
C103        C  0.87376798  0.28791648  0.59155886     0.98800
O104        O  0.90643374  0.37299994  0.55960065    -0.62300
O105        O  0.78575871  0.33070418  0.55464659    -0.57100
O106        O  0.86322220  0.33847556  0.53596068    -0.93800
O107        O  0.82296644  0.32227754  0.53430097    -0.92200
O108        O  0.82921817  0.39426900  0.58065522    -0.92600
O109        O  0.87603810  0.40924355  0.58378511    -0.91400
C110        C  0.84341671  0.33093470  0.51970676     1.17700
H111        H  0.79696030  0.34761853  0.62351269     0.33600
H112        H  0.89311150  0.38372207  0.63295718     0.44500
H113        H  0.83658038  0.29552128  0.58189064     0.38000
H114        H  0.83441525  0.30742450  0.71865399     0.34500
H115        H  0.86601396  0.42557268  0.65100148     0.26300
H116        H  0.89766887  0.34328411  0.74904809     0.32200
H117        H  0.88010666  0.29078724  0.68033556     0.38100
H118        H  0.81523684  0.37988345  0.57304348     0.32600
H119        H  0.79806951  0.34375545  0.53985631     0.31400
H120        H  0.77334482  0.27671430  0.55632353     0.33100
H121        H  0.80686346  0.25214305  0.61128805     0.32100
H122        H  0.87570586  0.40012792  0.56433117     0.36100
H123        H  0.89812428  0.37904163  0.54370368     0.28800
H124        H  0.77490533  0.30716885  0.74263705     0.33100
H125        H  0.81961176  0.24542825  0.69872150     0.35900
H126        H  0.77673185  0.31802422  0.53894401     0.28500
H127        H  0.91541681  0.38608779  0.57469624     0.41400
H128        H  0.90709369  0.38765766  0.73093816     0.31400
H129        H  0.87360891  0.41109197  0.67709506     0.39100
H130        H  0.78978276  0.25228869  0.63900031     0.30900
H131        H  0.87240539  0.32087097  0.74982768     0.31000
H132        H  0.78955096  0.29362961  0.74327475     0.31200
Zr133      Zr  0.52545636  0.20802121  0.15113310     2.17500
O134        O  0.52146692  0.23766616  0.18073434    -0.51100
O135        O  0.56654916  0.21817160  0.16600937    -0.74300
O136        O  0.52060741  0.19685315  0.21236216    -0.81100
O137        O  0.54872942  0.24856679  0.07082190    -0.82800
O138        O  0.49328656  0.15800721  0.21834404    -0.78500
O139        O  0.55140488  0.24739626  0.12915945    -0.90100
O140        O  0.57439317  0.19215621  0.14128295    -0.76100
O141        O  0.52064563  0.16964987  0.16063849    -0.85600
O142        O  0.54400070  0.20269968  0.10330360    -0.85200
O143        O  0.48286069  0.18314098  0.15262993    -0.72000
O144        O  0.50474634  0.21281847  0.10126970    -0.84100
Zr145      Zr  0.47721404  0.14111958  0.06604590     2.26400
Zr146      Zr  0.47867939  0.14473042  0.16223542     2.06300
Zr147      Zr  0.52398524  0.20739711  0.05412292     2.10000
Zr148      Zr  0.53901512  0.16410068  0.11286999     1.78800
O149        O  0.51179626  0.23090466  0.01633240    -0.92900
O150        O  0.54825103  0.14199210  0.15793173    -0.40800
O151        O  0.51922299  0.16829028  0.06246661    -0.77400
O152        O  0.49716763  0.13680740  0.11642846    -0.96100
O153        O  0.45809249  0.14740512  0.11200691    -0.89400
O154        O  0.48227676  0.17989586  0.05487321    -0.92200
C155        C  0.58072314  0.21045537  0.15820056     1.01500
C156        C  0.55668766  0.25833371  0.09950287     1.14500
C157        C  0.50814938  0.17754769  0.23061808     1.05200
O158        O  0.48194606  0.11251847  0.19273220    -0.94400
O159        O  0.44602898  0.10766702  0.14842020    -0.90100
O160        O  0.44759333  0.10248974  0.09182110    -0.83300
C161        C  0.43861230  0.09527750  0.12231718     1.11900
O162        O  0.45595686  0.21376925  0.12951969    -0.96300
Zr163      Zr  0.46255899  0.18546290  0.10051308     1.88900
O164        O  0.43958525  0.13378768  0.04182128    -0.73000
O165        O  0.44647668  0.13908426  0.19990390    -0.52300
O166        O  0.42547838  0.16466851  0.13335595    -0.96900
O167        O  0.45974585  0.21436305  0.06011140    -0.54200
O168        O  0.43188659  0.16212708  0.05866450    -0.73500
C169        C  0.42683820  0.14393993  0.04175202     0.98800
O170        O  0.48148377  0.11031381  0.04033168    -0.62300
O171        O  0.56219083  0.22278927  0.02475266    -0.57100
O172        O  0.48677225  0.15121243  0.00558189    -0.93800
O173        O  0.51619136  0.18956086  0.99932083    -0.92200
O174        O  0.56961164  0.17595514  0.06885571    -0.92600
O175        O  0.53969188  0.13016905  0.09156241    -0.91400
C176        C  0.50184704  0.16953158  0.98750139     1.17700
H177        H  0.56053862  0.21450352  0.10070702     0.33600
H178        H  0.49453864  0.12085141  0.11956610     0.44500
H179        H  0.47539390  0.18128135  0.03313085     0.38000
H180        H  0.47621546  0.18657855  0.17189815     0.34500
H181        H  0.56488052  0.14597512  0.15317355     0.26300
H182        H  0.43355996  0.13750816  0.18416025     0.32200
H183        H  0.41340961  0.16575224  0.11824985     0.38100
H184        H  0.58304852  0.17546445  0.08106040     0.32600
H185        H  0.57435989  0.23130251  0.04206932     0.31400
H186        H  0.52677122  0.24343772  0.00543743     0.33100
H187        H  0.44247488  0.20875244  0.05793213     0.32100
H188        H  0.53296277  0.12880567  0.06820873     0.36100
H189        H  0.49717000  0.11862101  0.02852008     0.28800
H190        H  0.53207099  0.24102733  0.20082884     0.33100
H191        H  0.43987436  0.21084705  0.12268196     0.35900
H192        H  0.56375425  0.20867879  0.02137840     0.28500
H193        H  0.48380900  0.10119876  0.06001010     0.41400
H194        H  0.49910858  0.11747020  0.19160926     0.31400
H195        H  0.54916871  0.14975328  0.17926887     0.39100
H196        H  0.46451186  0.21185645  0.03755361     0.30900
H197        H  0.44059729  0.12309070  0.21122030     0.31000
H198        H  0.50515120  0.22928865  0.19057346     0.31200
Zr199      Zr  0.52085854  0.19996326  0.65620965     2.17500
O200        O  0.52028409  0.22722813  0.69552022    -0.51100
O201        O  0.56297648  0.21162259  0.66660474    -0.74300
O202        O  0.51495333  0.18457147  0.71538883    -0.81100
O203        O  0.53656567  0.24676512  0.58237737    -0.82800
O204        O  0.48992522  0.14513211  0.71771120    -0.78500
O205        O  0.53996780  0.24114044  0.63985276    -0.90100
O206        O  0.57148531  0.18778902  0.63723330    -0.76100
O207        O  0.52090152  0.16362788  0.65610189    -0.85600
O208        O  0.53902358  0.20140885  0.60335773    -0.85200
O209        O  0.47922829  0.17112642  0.65984373    -0.72000
O210        O  0.49615491  0.20522501  0.61286140    -0.84100
Zr211      Zr  0.47466946  0.13968473  0.56197782     2.26400
Zr212      Zr  0.47979862  0.13476723  0.65908160     2.06300
Zr213      Zr  0.51512458  0.20704683  0.56018848     2.10000
Zr214      Zr  0.53814467  0.16444727  0.60254740     1.78800
O215        O  0.49602219  0.22797214  0.53205099    -0.92900
O216        O  0.54738032  0.13620546  0.63383033    -0.40800
O217        O  0.51529749  0.17029704  0.55788823    -0.77400
O218        O  0.49770953  0.13381870  0.60666607    -0.96100
O219        O  0.45583292  0.13848651  0.61406377    -0.89400
O220        O  0.47447649  0.17633288  0.56161460    -0.92200
C221        C  0.57736789  0.20470731  0.65668369     1.01500
C222        C  0.54383959  0.25441067  0.61238633     1.14500
C223        C  0.50290788  0.16449132  0.73184745     1.05200
O224        O  0.49413653  0.10879038  0.68445618    -0.94400
O225        O  0.45339407  0.09639770  0.64049124    -0.90100
O226        O  0.44798544  0.09870292  0.58267833    -0.83300
C227        C  0.44376645  0.08743523  0.61238782     1.11900
O228        O  0.44731593  0.19775880  0.65223372    -0.96300
Zr229      Zr  0.45506288  0.17439175  0.61353504     1.88900
O230        O  0.43649499  0.13216734  0.54126081    -0.73000
O231        O  0.44315258  0.11664456  0.69308145    -0.52300
O232        O  0.42138950  0.14914992  0.65152489    -0.96900
O233        O  0.44618357  0.20333228  0.58362583    -0.54200
O234        O  0.42281097  0.15082914  0.57339834    -0.73500
C235        C  0.42053719  0.13733288  0.54916129     0.98800
O236        O  0.47913695  0.11234912  0.52720186    -0.62300
O237        O  0.55184467  0.23026220  0.52700637    -0.57100
O238        O  0.48475227  0.15496168  0.50267873    -0.93800
O239        O  0.51030995  0.19450078  0.50210535    -0.92200
O240        O  0.57181258  0.18710381  0.56349314    -0.92600
O241        O  0.54344606  0.13952174  0.56399388    -0.91400
C242        C  0.49849795  0.17513258  0.48723559     1.17700
H243        H  0.55509669  0.21438537  0.60134070     0.33600
H244        H  0.49688611  0.11868425  0.60531816     0.44500
H245        H  0.46623508  0.17850077  0.54184172     0.38000
H246        H  0.47266093  0.17188835  0.68138515     0.34500
H247        H  0.56479476  0.14298692  0.63100629     0.26300
H248        H  0.44497557  0.10574448  0.71034469     0.32200
H249        H  0.40720979  0.14733832  0.63863721     0.38100
H250        H  0.56581522  0.19428168  0.54541940     0.32600
H251        H  0.55082271  0.24411646  0.51687005     0.31400
H252        H  0.50906878  0.24186682  0.51950683     0.33100
H253        H  0.44519300  0.20008190  0.55907485     0.32100
H254        H  0.52729396  0.12612404  0.56098173     0.36100
H255        H  0.49506386  0.12169222  0.51627474     0.28800
H256        H  0.53294856  0.22990414  0.71243951     0.33100
H257        H  0.43053407  0.19376591  0.64841180     0.35900
H258        H  0.56464097  0.23673568  0.54420533     0.28500
H259        H  0.48096034  0.10116068  0.54388515     0.41400
H260        H  0.49886091  0.10318449  0.66471671     0.31400
H261        H  0.54513927  0.13770844  0.65834602     0.39100
H262        H  0.46097787  0.21859752  0.58519322     0.30900
H263        H  0.44393220  0.12936841  0.70643702     0.31000
H264        H  0.50515532  0.21829815  0.70865862     0.31200
Zr265      Zr  0.67518244  0.48217592  0.16986441     2.17500
O266        O  0.69788103  0.47353034  0.21406837    -0.51100
O267        O  0.64981153  0.43902470  0.17263242    -0.74300
O268        O  0.66621126  0.48644944  0.22874399    -0.81100
O269        O  0.70714460  0.47242275  0.09872540    -0.82800
O270        O  0.65006405  0.51055635  0.22723157    -0.78500
O271        O  0.70703878  0.47488501  0.15641590    -0.90100
O272        O  0.61625975  0.43027229  0.14217003    -0.76100
O273        O  0.63775832  0.48104095  0.16710078    -0.85600
O274        O  0.65872679  0.46697264  0.11602124    -0.85200
O275        O  0.68534934  0.52290139  0.17230278    -0.72000
O276        O  0.70358077  0.50918099  0.12715026    -0.84100
Zr277      Zr  0.65636957  0.53220921  0.07162183     2.26400
Zr278      Zr  0.64752117  0.52140627  0.16806723     2.06300
Zr279      Zr  0.68652288  0.49326746  0.07393514     2.10000
Zr280      Zr  0.62141952  0.46638227  0.11308286     1.78800
O281        O  0.72560963  0.51383056  0.04635334    -0.92900
O282        O  0.58553510  0.45240268  0.14775741    -0.40800
O283        O  0.64880256  0.49233844  0.06957837    -0.77400
O284        O  0.62871825  0.50601688  0.11522033    -0.96100
O285        O  0.67404264  0.54807296  0.12431631    -0.89400
O286        O  0.69399821  0.53296550  0.07396943    -0.92200
C287        C  0.62962984  0.42435024  0.16018894     1.01500
C288        C  0.71362614  0.46954555  0.12937873     1.14500
C289        C  0.65738213  0.49757728  0.24336848     1.05200
O290        O  0.60791716  0.50457885  0.19339883    -0.94400
O291        O  0.63033604  0.54535683  0.14934830    -0.90100
O292        O  0.64101537  0.55739314  0.09327393    -0.83300
C293        C  0.63194290  0.55810089  0.12209713     1.11900
O294        O  0.74407785  0.55614253  0.16546850    -0.96300
Zr295      Zr  0.71136376  0.54921185  0.12659508     1.88900
O296        O  0.68642579  0.57076613  0.05008234    -0.73000
O297        O  0.66484279  0.55741385  0.19861920    -0.52300
O298        O  0.71882517  0.58108288  0.16275536    -0.96900
O299        O  0.74883648  0.55953327  0.09820081    -0.54200
O300        O  0.71859341  0.58189327  0.08446184    -0.73500
C301        C  0.70750801  0.58564256  0.05894991     0.98800
O302        O  0.62439218  0.53037363  0.03470201    -0.62300
O303        O  0.67445064  0.45831487  0.04212134    -0.57100
O304        O  0.65959049  0.52278667  0.01301988    -0.93800
O305        O  0.67660715  0.49915948  0.01550431    -0.92200
O306        O  0.60931573  0.43752748  0.06993238    -0.92600
O307        O  0.58922747  0.46388335  0.07636847    -0.91400
C308        C  0.66698859  0.51010483  0.99916740     1.17700
H309        H  0.65733989  0.45184324  0.11257400     0.33600
H310        H  0.61388211  0.50630242  0.11307426     0.44500
H311        H  0.70402525  0.54200289  0.05448639     0.38000
H312        H  0.69265596  0.52865226  0.19403981     0.34500
H313        H  0.58996193  0.44923952  0.17123781     0.26300
H314        H  0.65297259  0.55446762  0.21662841     0.32200
H315        H  0.73026438  0.59567475  0.14946710     0.38100
H316        H  0.62444299  0.43984043  0.06032240     0.32600
H317        H  0.68918835  0.46095008  0.03072539     0.31400
H318        H  0.72694825  0.50150979  0.03468160     0.33100
H319        H  0.74693614  0.56377672  0.07390576     0.32100
H320        H  0.59731503  0.47411116  0.05556142     0.36100
H321        H  0.61719301  0.51470551  0.02509000     0.28800
H322        H  0.68607503  0.46113287  0.23023977     0.33100
H323        H  0.75556043  0.57321198  0.16218312     0.35900
H324        H  0.67073143  0.44519527  0.05964412     0.28500
H325        H  0.61198683  0.52905947  0.05055770     0.41400
H326        H  0.60471066  0.48915935  0.20457001     0.31400
H327        H  0.58354050  0.46645003  0.14932586     0.39100
H328        H  0.74893000  0.54440322  0.09763760     0.30900
H329        H  0.67844237  0.55761474  0.21131517     0.31000
H330        H  0.70621861  0.48780552  0.22717749     0.31200
Zr331      Zr  0.67138552  0.48058351  0.66948287     2.17500
O332        O  0.70033403  0.47945458  0.71008509    -0.51100
O333        O  0.64190370  0.43808242  0.67530314    -0.74300
O334        O  0.66259546  0.48363146  0.72863185    -0.81100
O335        O  0.69925408  0.46578318  0.59780097    -0.82800
O336        O  0.65013205  0.51078732  0.72799956    -0.78500
O337        O  0.69267371  0.46065382  0.65539662    -0.90100
O338        O  0.60951513  0.43272318  0.64427829    -0.76100
O339        O  0.63615272  0.48378082  0.66843331    -0.85600
O340        O  0.65313994  0.46617421  0.61630773    -0.85200
O341        O  0.68566081  0.52238466  0.67116446    -0.72000
O342        O  0.70057258  0.50559393  0.62610720    -0.84100
Zr343      Zr  0.65711718  0.53364813  0.57171321     2.26400
Zr344      Zr  0.64998625  0.52513890  0.66918718     2.06300
Zr345      Zr  0.68182135  0.49008642  0.57359783     2.10000
Zr346      Zr  0.61793940  0.46965688  0.61506228     1.78800
O347        O  0.72044697  0.50881630  0.54463748    -0.92900
O348        O  0.58441507  0.46099524  0.65222598    -0.40800
O349        O  0.64572523  0.49268039  0.57009178    -0.77400
O350        O  0.62944013  0.51036886  0.61702993    -0.96100
O351        O  0.67666417  0.54934811  0.62372425    -0.89400
O352        O  0.69291137  0.53089709  0.57285694    -0.92200
C353        C  0.62110988  0.42491163  0.66287691     1.01500
C354        C  0.70084426  0.45730586  0.62809532     1.14500
C355        C  0.65562326  0.49614416  0.74367104     1.05200
O356        O  0.61106090  0.51518757  0.69180451    -0.94400
O357        O  0.63915597  0.55430489  0.64912683    -0.90100
O358        O  0.64327785  0.56031577  0.59086889    -0.83300
C359        C  0.63797452  0.56438485  0.62037952     1.11900
O360        O  0.74438828  0.55120382  0.66286886    -0.96300
Zr361      Zr  0.71215638  0.54688542  0.62460227     1.88900
O362        O  0.68822899  0.57181807  0.55087411    -0.73000
O363        O  0.67039459  0.55874979  0.70449686    -0.52300
O364        O  0.72410511  0.58014512  0.66005549    -0.96900
O365        O  0.74771812  0.55346776  0.59416598    -0.54200
O366        O  0.72134042  0.58029712  0.58235234    -0.73500
C367        C  0.70997669  0.58535826  0.55851660     0.98800
O368        O  0.62490815  0.53232959  0.53581869    -0.62300
O369        O  0.66860434  0.45402148  0.54418615    -0.57100
O370        O  0.65933142  0.52426236  0.51278005    -0.93800
O371        O  0.67189221  0.49700563  0.51547642    -0.92200
O372        O  0.60062445  0.43926193  0.57409728    -0.92600
O373        O  0.58606702  0.46907201  0.57936584    -0.91400
C374        C  0.66438906  0.50982461  0.49898759     1.17700
H375        H  0.64981582  0.45027164  0.61337919     0.33600
H376        H  0.61554173  0.51239334  0.61553771     0.44500
H377        H  0.70281587  0.53929456  0.55297161     0.38000
H378        H  0.69363363  0.52766730  0.69268139     0.34500
H379        H  0.57191469  0.44507841  0.64654041     0.26300
H380        H  0.65877336  0.55606729  0.72276568     0.32200
H381        H  0.71167490  0.58483825  0.65654488     0.38100
H382        H  0.61413798  0.43757639  0.56610564     0.32600
H383        H  0.65178562  0.44882872  0.53841838     0.31400
H384        H  0.72706868  0.49809598  0.55016138     0.33100
H385        H  0.74493281  0.55624298  0.56962816     0.32100
H386        H  0.59058923  0.48581552  0.57392827     0.36100
H387        H  0.61743435  0.51668491  0.52609617     0.28800
H388        H  0.69105099  0.46632359  0.72731967     0.33100
H389        H  0.75744749  0.56752602  0.65790194     0.35900
H390        H  0.67711730  0.45915120  0.52179103     0.28500
H391        H  0.61269748  0.53110494  0.55199139     0.41400
H392        H  0.60488594  0.49918192  0.70316858     0.31400
H393        H  0.58939025  0.45857610  0.67569581     0.39100
H394        H  0.74701012  0.53789735  0.59568323     0.30900
H395        H  0.68298552  0.55657985  0.71650421     0.31000
H396        H  0.70649370  0.49399601  0.72257591     0.31200
Zr397      Zr  0.32802338  0.81500685  0.17386475     2.17500
O398        O  0.30435656  0.78365484  0.13601249    -0.51100
O399        O  0.35903469  0.80332461  0.17176161    -0.74300
O400        O  0.33451105  0.82796616  0.11302738    -0.81100
O401        O  0.29478601  0.77268278  0.25140416    -0.82800
O402        O  0.34715715  0.86712309  0.10632077    -0.78500
O403        O  0.30085475  0.77505445  0.19385816    -0.90100
O404        O  0.38997588  0.82814663  0.20358223    -0.76100
O405        O  0.36253614  0.85270483  0.17169774    -0.85600
O406        O  0.34593390  0.81752716  0.22867263    -0.85200
O407        O  0.31263274  0.84200540  0.16380374    -0.72000
O408        O  0.29867282  0.81093330  0.21464785    -0.84100
Zr409      Zr  0.33790581  0.87963664  0.25885619     2.26400
Zr410      Zr  0.34755943  0.87974683  0.16296570     2.06300
Zr411      Zr  0.31684899  0.81326205  0.26916969     2.10000
Zr412      Zr  0.38014354  0.85584050  0.22677279     1.78800
O413        O  0.28043275  0.79039099  0.30302307    -0.92900
O414        O  0.41430412  0.88037527  0.18918216    -0.40800
O415        O  0.35170041  0.85148800  0.26905350    -0.77400
O416        O  0.36712812  0.88458569  0.21713376    -0.96100
O417        O  0.31942282  0.87650303  0.20456348    -0.89400
O418        O  0.30331250  0.84151674  0.26093516    -0.92200
C419        C  0.37972708  0.81033021  0.18517081     1.01500
C420        C  0.29132129  0.76346961  0.22223584     1.14500
C421        C  0.34115301  0.84720893  0.09433200     1.05200
O422        O  0.38780243  0.90757759  0.14287526    -0.94400
O423        O  0.35242418  0.91733647  0.17528374    -0.90100
O424        O  0.34736854  0.91861176  0.23237830    -0.83300
C425        C  0.35153708  0.92778967  0.20126620     1.11900
O426        O  0.25459480  0.81301352  0.16821343    -0.96300
Zr427      Zr  0.28487455  0.83913529  0.20684047     1.88900
O428        O  0.30422206  0.88335236  0.27637623    -0.73000
O429        O  0.32896089  0.89275923  0.11768448    -0.52300
O430        O  0.27262387  0.86116816  0.16598728    -0.96900
O431        O  0.24956550  0.80785086  0.23653563    -0.54200
O432        O  0.27307675  0.86178212  0.24209736    -0.73500
C433        C  0.28275272  0.87589099  0.26636411     0.98800
O434        O  0.36836386  0.91171428  0.29032716    -0.62300
O435        O  0.33623321  0.79346349  0.29998553    -0.57100
O436        O  0.33507640  0.86793364  0.31998024    -0.93800
O437        O  0.32298958  0.82868574  0.32537674    -0.92200
O438        O  0.39579111  0.84239450  0.27556692    -0.92600
O439        O  0.41267307  0.88694612  0.25686187    -0.91400
C440        C  0.32943652  0.84857987  0.33798884     1.17700
H441        H  0.34969113  0.80502526  0.23405413     0.33600
H442        H  0.38060201  0.90028567  0.21731435     0.44500
H443        H  0.29267120  0.83924795  0.27959063     0.38000
H444        H  0.30495671  0.83975943  0.14173746     0.34500
H445        H  0.42685947  0.87673054  0.19762101     0.26300
H446        H  0.31861848  0.89728201  0.12977205     0.32200
H447        H  0.27930332  0.86077528  0.14363459     0.38100
H448        H  0.38693306  0.84264000  0.29575629     0.32600
H449        H  0.34688335  0.80479377  0.31647069     0.31400
H450        H  0.28532431  0.78454499  0.32411048     0.33100
H451        H  0.24651777  0.81540821  0.25545410     0.32100
H452        H  0.40606404  0.89673890  0.26466774     0.36100
H453        H  0.37553852  0.90427264  0.30590413     0.28800
H454        H  0.31587657  0.78264199  0.12087855     0.33100
H455        H  0.24079621  0.81557317  0.17096041     0.35900
H456        H  0.32348311  0.78059301  0.31446334     0.28500
H457        H  0.38110431  0.92140104  0.27319993     0.41400
H458        H  0.39219552  0.89852887  0.12807633     0.31400
H459        H  0.40985554  0.87338662  0.16663971     0.39100
H460        H  0.25495386  0.79728263  0.24815958     0.30900
H461        H  0.34200163  0.90784637  0.10764404     0.31000
H462        H  0.29552915  0.78953225  0.12087412     0.31200
Zr463      Zr  0.31709867  0.80994020  0.67375619     2.17500
O464        O  0.29830090  0.77912673  0.63326459    -0.51100
O465        O  0.34712185  0.79654695  0.67223957    -0.74300
O466        O  0.32182970  0.82444386  0.61344501    -0.81100
O467        O  0.28515100  0.76554423  0.74864557    -0.82800
O468        O  0.34066913  0.86436525  0.60976605    -0.78500
O469        O  0.28681223  0.77039511  0.69049591    -0.90100
O470        O  0.37960164  0.82135487  0.70160704    -0.76100
O471        O  0.35301186  0.84647611  0.67378849    -0.85600
O472        O  0.33408371  0.81008402  0.72862006    -0.85200
O473        O  0.30399736  0.83901222  0.66593720    -0.72000
O474        O  0.28753664  0.80627384  0.71427203    -0.84100
Zr475      Zr  0.33131591  0.87362631  0.76278717     2.26400
Zr476      Zr  0.34045571  0.87558843  0.66697022     2.06300
Zr477      Zr  0.30492469  0.80590877  0.76886508     2.10000
Zr478      Zr  0.36977822  0.84718553  0.72907350     1.78800
O479        O  0.26630405  0.78674438  0.79773310    -0.92900
O480        O  0.40496314  0.87443257  0.69507733    -0.40800
O481        O  0.34140925  0.84267110  0.77111870    -0.77400
O482        O  0.35981015  0.87797277  0.72075676    -0.96100
O483        O  0.31317086  0.87326686  0.70913319    -0.89400
O484        O  0.29494755  0.83697295  0.76328356    -0.92200
C485        C  0.36828015  0.80341030  0.68396092     1.01500
C486        C  0.27967863  0.75745579  0.71853900     1.14500
C487        C  0.33143647  0.84451562  0.59627944     1.05200
O488        O  0.38055310  0.90231235  0.64526296    -0.94400
O489        O  0.35018679  0.91423738  0.68234113    -0.90100
O490        O  0.34782650  0.91485947  0.74032380    -0.83300
C491        C  0.35212936  0.92476927  0.70964401     1.11900
O492        O  0.24371394  0.81291864  0.67352341    -0.96300
Zr493      Zr  0.27703996  0.83727940  0.70962048     1.88900
O494        O  0.30144101  0.88403553  0.77552764    -0.73000
O495        O  0.32215595  0.89273395  0.62755253    -0.52300
O496        O  0.26835467  0.86072761  0.66614599    -0.96900
O497        O  0.24084329  0.80954205  0.74137494    -0.54200
O498        O  0.26860002  0.86305807  0.74390017    -0.73500
C499        C  0.28034939  0.87862996  0.76576807     0.98800
O500        O  0.36328252  0.90093186  0.79840359    -0.62300
O501        O  0.31856001  0.78175953  0.80228001    -0.57100
O502        O  0.32423973  0.85940549  0.82266718    -0.93800
O503        O  0.31399099  0.82046222  0.82588641    -0.92200
O504        O  0.38495290  0.82860597  0.77141033    -0.92600
O505        O  0.39913487  0.87368702  0.76825908    -0.91400
C506        C  0.31979169  0.83996180  0.83937270     1.17700
H507        H  0.33701501  0.79694991  0.73318770     0.33600
H508        H  0.37402162  0.89310541  0.72173057     0.44500
H509        H  0.28477321  0.83556162  0.78208370     0.38000
H510        H  0.29638011  0.83784229  0.64397185     0.34500
H511        H  0.41806496  0.87251114  0.70581037     0.26300
H512        H  0.33436284  0.90199506  0.60954610     0.32200
H513        H  0.27778126  0.87718147  0.67279573     0.38100
H514        H  0.37186469  0.81217988  0.77518507     0.32600
H515        H  0.33288130  0.79309746  0.81435568     0.31400
H516        H  0.26476114  0.77184825  0.80860462     0.33100
H517        H  0.24364212  0.81429258  0.76531945     0.32100
H518        H  0.38997502  0.87186300  0.78932039     0.36100
H519        H  0.36704567  0.89097467  0.81490887     0.28800
H520        H  0.31086243  0.78160415  0.61674066     0.33100
H521        H  0.23157104  0.81777917  0.67687709     0.35900
H522        H  0.30639169  0.77336879  0.82062418     0.28500
H523        H  0.37740039  0.90885861  0.78298651     0.41400
H524        H  0.38606847  0.89192044  0.63633344     0.31400
H525        H  0.40261172  0.86740653  0.67265882     0.39100
H526        H  0.24090747  0.79433590  0.74239163     0.30900
H527        H  0.30948273  0.87933682  0.61580368     0.31000
H528        H  0.28701294  0.78262472  0.61981282     0.31200
Zr529      Zr  0.20015318  0.53406039  0.19281216     2.17500
O530        O  0.23249052  0.54181517  0.15360205    -0.51100
O531        O  0.21133161  0.57626299  0.18740706    -0.74300
O532        O  0.18891299  0.53049419  0.13274285    -0.81100
O533        O  0.24336259  0.54359125  0.26660799    -0.82800
O534        O  0.14944551  0.50480139  0.13052137    -0.78500
O535        O  0.24064127  0.54929202  0.20911664    -0.90100
O536        O  0.18317139  0.58059480  0.21481303    -0.76100
O537        O  0.16194029  0.53102849  0.19210792    -0.85600
O538        O  0.19680787  0.54771525  0.24613415    -0.85200
O539        O  0.17353288  0.49244616  0.18820381    -0.72000
O540        O  0.20475151  0.50813825  0.23586228    -0.84100
Zr541      Zr  0.13470926  0.47873749  0.28604912     2.26400
Zr542      Zr  0.13522192  0.48985162  0.18869067     2.06300
Zr543      Zr  0.20193376  0.52263692  0.28887754     2.10000
Zr544      Zr  0.15791732  0.54370427  0.24602783     1.78800
O545        O  0.22294683  0.50552288  0.32212400    -0.92900
O546        O  0.13039480  0.55246600  0.21251397    -0.40800
O547        O  0.16319220  0.51952754  0.29039674    -0.77400
O548        O  0.12949406  0.50307060  0.24141768    -0.96100
O549        O  0.13845230  0.46458709  0.23340445    -0.89400
O550        O  0.17327315  0.48173181  0.28661930    -0.92200
C551        C  0.20251080  0.58887413  0.19749401     1.01500
C552        C  0.25271086  0.55138480  0.23633753     1.14500
C553        C  0.16966081  0.51875746  0.11621069     1.05200
O554        O  0.10717965  0.50294642  0.16881002    -0.94400
O555        O  0.09728118  0.45739838  0.20661432    -0.90100
O556        O  0.09503886  0.45127654  0.26492670    -0.83300
C557        C  0.08627142  0.44651423  0.23460984     1.11900
O558        O  0.20488581  0.46445633  0.19772751    -0.96300
Zr559      Zr  0.17615469  0.46687213  0.23424018     1.88900
O560        O  0.12950858  0.44083682  0.30682495    -0.73000
O561        O  0.11996850  0.45817432  0.14949342    -0.52300
O562        O  0.15646745  0.43566328  0.19483662    -0.96900
O563        O  0.20478414  0.45868342  0.26574562    -0.54200
O564        O  0.15107198  0.43141317  0.27229089    -0.73500
C565        C  0.13641232  0.42668805  0.29741469     0.98800
O566        O  0.10335068  0.47926323  0.31913845    -0.62300
O567        O  0.22169299  0.55897391  0.31868896    -0.57100
O568        O  0.14608368  0.48592998  0.34585194    -0.93800
O569        O  0.18510885  0.51427334  0.34633781    -0.92200
O570        O  0.17371467  0.57379942  0.28757312    -0.92600
O571        O  0.12685275  0.54193318  0.28239785    -0.91400
C572        C  0.16502582  0.50035645  0.36122710     1.17700
H573        H  0.20902621  0.56371203  0.24920242     0.33600
H574        H  0.11358518  0.50093514  0.24250460     0.44500
H575        H  0.17510966  0.47282737  0.30620363     0.38000
H576        H  0.17621329  0.48768572  0.16660596     0.34500
H577        H  0.13557078  0.56917876  0.21613538     0.26300
H578        H  0.11140255  0.46251312  0.13150361     0.32200
H579        H  0.13947213  0.42751614  0.20177351     0.38100
H580        H  0.18444678  0.57006214  0.30203970     0.32600
H581        H  0.23179585  0.55631685  0.33599890     0.31400
H582        H  0.23328660  0.51780052  0.33768604     0.33100
H583        H  0.19727232  0.45153793  0.28846300     0.32100
H584        H  0.12905951  0.53550451  0.30511547     0.36100
H585        H  0.11142783  0.49366570  0.33200988     0.28800
H586        H  0.23382042  0.55441456  0.13652506     0.33100
H587        H  0.21900625  0.48039436  0.19721821     0.35900
H588        H  0.23311692  0.57106607  0.30182739     0.28500
H589        H  0.09379397  0.48284431  0.30193093     0.41400
H590        H  0.09612229  0.49060715  0.15385447     0.31400
H591        H  0.13459615  0.55260540  0.18824516     0.39100
H592        H  0.21804270  0.47442007  0.27058857     0.30900
H593        H  0.13411260  0.45968173  0.13766444     0.31000
H594        H  0.22682754  0.52749561  0.14072166     0.31200
Zr595      Zr  0.19997579  0.52953918  0.69094092     2.17500
O596        O  0.23015262  0.53494329  0.64931671    -0.51100
O597        O  0.21019806  0.57134492  0.68050396    -0.74300
O598        O  0.18554485  0.52277429  0.63219568    -0.81100
O599        O  0.24528767  0.54334355  0.76310224    -0.82800
O600        O  0.14584136  0.49765590  0.63354560    -0.78500
O601        O  0.24132406  0.54567007  0.70520085    -0.90100
O602        O  0.18355576  0.57663457  0.71032707    -0.76100
O603        O  0.16170032  0.52634039  0.69257581    -0.85600
O604        O  0.19838231  0.54527239  0.74333598    -0.85200
O605        O  0.17276954  0.48777682  0.69021588    -0.72000
O606        O  0.20581579  0.50507828  0.73527326    -0.84100
Zr607      Zr  0.13709978  0.47781026  0.79024898     2.26400
Zr608      Zr  0.13445447  0.48498930  0.69288761     2.06300
Zr609      Zr  0.20456466  0.52156244  0.78729648     2.10000
Zr610      Zr  0.15959940  0.54135991  0.74534836     1.78800
O611        O  0.22753475  0.50610906  0.81939949    -0.92900
O612        O  0.13092418  0.54748920  0.71044871    -0.40800
O613        O  0.16605486  0.51883325  0.79105350    -0.77400
O614        O  0.13060459  0.50058001  0.74460326    -0.96100
O615        O  0.13905071  0.46149997  0.73877741    -0.89400
O616        O  0.17553378  0.48056277  0.78859203    -0.92200
C617        C  0.20154972  0.58417741  0.69030501     1.01500
C618        C  0.25393726  0.54933363  0.73228408     1.14500
C619        C  0.16553181  0.51069904  0.61742728     1.05200
O620        O  0.10490990  0.49570508  0.67162710    -0.94400
O621        O  0.09666892  0.45369229  0.71368317    -0.90100
O622        O  0.09643228  0.45006188  0.77218735    -0.83300
C623        C  0.08650287  0.44421693  0.74269998     1.11900
O624        O  0.20273019  0.45914311  0.69785686    -0.96300
Zr625      Zr  0.17673084  0.46379058  0.73719591     1.88900
O626        O  0.13197623  0.44025963  0.81249424    -0.73000
O627        O  0.12068457  0.45093894  0.65842699    -0.52300
O628        O  0.15520640  0.43066472  0.70138232    -0.96900
O629        O  0.20605223  0.45689961  0.76913795    -0.54200
O630        O  0.15183657  0.42954197  0.77674714    -0.73500
C631        C  0.13786434  0.42550626  0.80246578     0.98800
O632        O  0.10697034  0.47929656  0.82508251    -0.62300
O633        O  0.22621715  0.55913223  0.81357438    -0.57100
O634        O  0.15058023  0.48700129  0.84887127    -0.93800
O635        O  0.18983703  0.51461334  0.84578303    -0.92200
O636        O  0.17693064  0.57404655  0.78260744    -0.92600
O637        O  0.13157556  0.54371840  0.78343284    -0.91400
C638        C  0.17029352  0.50158466  0.86245015     1.17700
H639        H  0.21073626  0.56144319  0.74473153     0.33600
H640        H  0.11480278  0.49864347  0.74637425     0.44500
H641        H  0.17779558  0.47220001  0.80850227     0.38000
H642        H  0.17465079  0.48212394  0.66891980     0.34500
H643        H  0.13314355  0.56291777  0.71661803     0.26300
H644        H  0.11233049  0.45392767  0.63868777     0.32200
H645        H  0.13819645  0.42449527  0.70705274     0.38100
H646        H  0.17815593  0.56690517  0.80529713     0.32600
H647        H  0.21396400  0.56352871  0.81855819     0.31400
H648        H  0.21618106  0.49365087  0.83594007     0.33100
H649        H  0.20002036  0.45261022  0.79311429     0.32100
H650        H  0.12202267  0.52752580  0.79401446     0.36100
H651        H  0.11544068  0.49430024  0.83650095     0.28800
H652        H  0.23110240  0.54715950  0.63181502     0.33100
H653        H  0.20199107  0.44396881  0.70552501     0.35900
H654        H  0.23093907  0.55525109  0.83642656     0.28500
H655        H  0.09651038  0.48193569  0.80841779     0.41400
H656        H  0.09426832  0.48272641  0.65726282     0.31400
H657        H  0.13711620  0.55047201  0.68659912     0.39100
H658        H  0.22022050  0.47271578  0.76992913     0.30900
H659        H  0.13522976  0.45214188  0.64837750     0.31000
H660        H  0.22350009  0.52014080  0.63736316     0.31200
Zr661      Zr  0.48403414  0.67919642  0.17582898     2.17500
O662        O  0.47827048  0.70329316  0.12974221    -0.51100
O663        O  0.44202122  0.64773772  0.17765026    -0.74300
O664        O  0.48784308  0.66925243  0.11799517    -0.81100
O665        O  0.47202705  0.71171988  0.24268109    -0.82800
O666        O  0.51895403  0.66216170  0.11882790    -0.78500
O667        O  0.46505810  0.70223617  0.18724460    -0.90100
O668        O  0.43817347  0.61819525  0.21614442    -0.76100
O669        O  0.48857367  0.64503913  0.18412258    -0.85600
O670        O  0.47110011  0.66385850  0.23314283    -0.85200
O671        O  0.52626052  0.69403127  0.16823116    -0.72000
O672        O  0.50975949  0.71049425  0.21148933    -0.84100
Zr673      Zr  0.54166664  0.67222550  0.27204007     2.26400
Zr674      Zr  0.53031989  0.65937639  0.17780878     2.06300
Zr675      Zr  0.49605667  0.69469903  0.26837787     2.10000
Zr676      Zr  0.47620910  0.62990041  0.24180017     1.78800
O677        O  0.51542483  0.73412127  0.28936376    -0.92900
O678        O  0.46756094  0.59384125  0.21524709    -0.40800
O679        O  0.50031019  0.66005676  0.27874902    -0.77400
O680        O  0.51734641  0.64163553  0.23475978    -0.96100
O681        O  0.55528644  0.68891767  0.21549493    -0.89400
O682        O  0.53747832  0.70688919  0.26390574    -0.92200
C683        C  0.42953353  0.62772703  0.19470376     1.01500
C684        C  0.46292586  0.71224041  0.21301908     1.14500
C685        C  0.50273758  0.66495125  0.10311779     1.05200
O686        O  0.51767791  0.61756667  0.17628082    -0.94400
O687        O  0.57000848  0.67117451  0.19761713    -0.90100
O688        O  0.56488454  0.65451443  0.25061743    -0.83300
C689        C  0.57422478  0.65873359  0.22041578     1.11900
O690        O  0.55622683  0.75151871  0.15996374    -0.96300
Zr691      Zr  0.55162546  0.72316176  0.20748024     1.88900
O692        O  0.57970119  0.70540569  0.28304214    -0.73000
O693        O  0.55694572  0.65812801  0.13556509    -0.52300
O694        O  0.58513936  0.73114051  0.17084395    -0.96900
O695        O  0.55626055  0.75998546  0.22666291    -0.54200
O696        O  0.58634574  0.73649091  0.24582592    -0.73500
C697        C  0.59234416  0.72682650  0.27138623     0.98800
O698        O  0.54793492  0.64833299  0.31771377    -0.62300
O699        O  0.46110187  0.68236002  0.30460296    -0.57100
O700        O  0.53115073  0.67512508  0.33064897    -0.93800
O701        O  0.50361084  0.68758243  0.32745183    -0.92200
O702        O  0.44865668  0.61831194  0.29007338    -0.92600
O703        O  0.47669827  0.60039523  0.28340105    -0.91400
C704        C  0.51678537  0.68079388  0.34426374     1.17700
H705        H  0.45492865  0.66022832  0.23744420     0.33600
H706        H  0.51977442  0.62818595  0.23921560     0.44500
H707        H  0.54610717  0.71795471  0.28102930     0.38000
H708        H  0.53112111  0.70098246  0.14513147     0.34500
H709        H  0.45187035  0.58180925  0.22487338     0.26300
H710        H  0.54699373  0.64492858  0.12113850     0.32200
H711        H  0.57886050  0.71775971  0.15587071     0.38100
H712        H  0.45254703  0.63329433  0.30016114     0.32600
H713        H  0.46216847  0.69723639  0.31126922     0.31400
H714        H  0.50286696  0.73871595  0.28941627     0.33100
H715        H  0.56034472  0.75987262  0.25127674     0.32100
H716        H  0.49358630  0.60684644  0.28997227     0.36100
H717        H  0.54208731  0.63268145  0.30849387     0.28800
H718        H  0.46556995  0.69218862  0.11499654     0.33100
H719        H  0.57256446  0.76485236  0.16198129     0.35900
H720        H  0.44733133  0.67570559  0.28899601     0.28500
H721        H  0.56541531  0.65506588  0.31906906     0.41400
H722        H  0.53207187  0.61633919  0.18240356     0.31400
H723        H  0.46435188  0.59657982  0.19088709     0.39100
H724        H  0.53995140  0.75786285  0.22662149     0.30900
H725        H  0.56243530  0.67262658  0.12017342     0.31000
H726        H  0.49296080  0.71060332  0.11547829     0.31200
Zr727      Zr  0.48535366  0.68943352  0.67629502     2.17500
O728        O  0.48358904  0.71872188  0.63548903    -0.51100
O729        O  0.44324471  0.65861415  0.67340636    -0.74300
O730        O  0.48904433  0.68230320  0.61646364    -0.81100
O731        O  0.46845787  0.71329372  0.75071227    -0.82800
O732        O  0.51835562  0.67259304  0.61564600    -0.78500
O733        O  0.46326949  0.70780729  0.69367058    -0.90100
O734        O  0.43852702  0.62646547  0.70669989    -0.76100
O735        O  0.48958669  0.65519923  0.67834670    -0.85600
O736        O  0.47103163  0.66991420  0.73142004    -0.85200
O737        O  0.52764785  0.70494127  0.67018562    -0.72000
O738        O  0.51002547  0.71749620  0.71714351    -0.84100
Zr739      Zr  0.54062693  0.67500651  0.76905029     2.26400
Zr740      Zr  0.53131531  0.67016267  0.67304777     2.06300
Zr741      Zr  0.49480789  0.69738031  0.77179410     2.10000
Zr742      Zr  0.47574277  0.63574232  0.73354469     1.78800
O743        O  0.51240885  0.73503738  0.79799901    -0.92900
O744        O  0.46673659  0.60309722  0.69813572    -0.40800
O745        O  0.49909381  0.66260333  0.77508321    -0.77400
O746        O  0.51707346  0.64817005  0.72699205    -0.96100
O747        O  0.55599108  0.69598915  0.71514121    -0.89400
O748        O  0.53644585  0.70975402  0.76782074    -0.92200
C749        C  0.43042971  0.63755525  0.68729207     1.01500
C750        C  0.45932005  0.71477059  0.72137301     1.14500
C751        C  0.50286672  0.67690539  0.60075987     1.05200
O752        O  0.51709702  0.63132933  0.65173991    -0.94400
O753        O  0.56073134  0.65936447  0.68814450    -0.90100
O754        O  0.56506829  0.65876591  0.74616306    -0.83300
C755        C  0.56989036  0.65566831  0.71557837     1.11900
O756        O  0.55635418  0.76410073  0.67700302    -0.96300
Zr757      Zr  0.55205304  0.73033096  0.71381869     1.88900
O758        O  0.57899963  0.70670009  0.78387414    -0.73000
O759        O  0.56574700  0.68943519  0.63439408    -0.52300
O760        O  0.58291034  0.74194429  0.67019388    -0.96900
O761        O  0.55886725  0.76469008  0.74375878    -0.54200
O762        O  0.58740726  0.73939851  0.74923522    -0.73500
C763        C  0.59273942  0.72821454  0.77335688     0.98800
O764        O  0.54312718  0.64656891  0.81066869    -0.62300
O765        O  0.45977485  0.68109703  0.80909008    -0.57100
O766        O  0.52930772  0.67386428  0.82890831    -0.93800
O767        O  0.50147055  0.68583244  0.82943570    -0.92200
O768        O  0.44656868  0.62011206  0.78017835    -0.92600
O769        O  0.47580915  0.60376028  0.76995823    -0.91400
C770        C  0.51445994  0.67804227  0.84443515     1.17700
H771        H  0.45474054  0.66593034  0.73555592     0.33600
H772        H  0.51935105  0.63453631  0.72827264     0.44500
H773        H  0.54484007  0.71930300  0.78661781     0.38000
H774        H  0.53292649  0.71330460  0.64792802     0.34500
H775        H  0.48006129  0.59970807  0.70189392     0.26300
H776        H  0.56339442  0.67743215  0.61823945     0.32200
H777        H  0.59679909  0.74271510  0.68275323     0.38100
H778        H  0.44787862  0.63423024  0.79023105     0.32600
H779        H  0.45985687  0.69495894  0.81814972     0.31400
H780        H  0.49977630  0.73378304  0.81333778     0.33100
H781        H  0.56354688  0.76203574  0.76731638     0.32100
H782        H  0.49256426  0.60985608  0.77701526     0.36100
H783        H  0.53788975  0.63212162  0.79824676     0.28800
H784        H  0.47057841  0.70967398  0.61953244     0.33100
H785        H  0.57328294  0.77629447  0.67857542     0.35900
H786        H  0.44597370  0.67462603  0.79352227     0.28500
H787        H  0.56035782  0.65267741  0.81445951     0.41400
H788        H  0.53003409  0.63315805  0.63650920     0.31400
H789        H  0.45283370  0.58933998  0.70947154     0.39100
H790        H  0.54285610  0.76298840  0.74654781     0.30900
H791        H  0.56372573  0.70157496  0.62027425     0.31000
H792        H  0.49837713  0.72550476  0.62152217     0.31200
Zr793      Zr  0.21646952  0.02549480  0.88216097     2.17500
O794        O  0.24414738  0.04762193  0.83479830    -0.51100
O795        O  0.22521220  0.99377562  0.87301697    -0.74300
O796        O  0.25835056  0.05008256  0.90153997    -0.81100
O797        O  0.16099556  0.00389907  0.82411882    -0.82800
O798        O  0.25707619  0.05676931  0.95764271    -0.78500
O799        O  0.20152646  0.02298264  0.82326141    -0.90100
O800        O  0.20218986  0.96219748  0.90917192    -0.76100
O801        O  0.21628724  0.01030070  0.93948651    -0.85600
O802        O  0.18007253  0.98877565  0.88942653    -0.85200
O803        O  0.21814156  0.05495940  0.91761242    -0.72000
O804        O  0.18384883  0.03347742  0.87358187    -0.84100
Zr805      Zr  0.14996082  0.01250419  0.97505048     2.26400
Zr806      Zr  0.21642412  0.03878151  0.97532329     2.06300
Zr807      Zr  0.14747442  0.99664848  0.88314377     2.10000
Zr808      Zr  0.18023087  0.97386050  0.94652585     1.78800
O809        O  0.12183180  0.00587918  0.84582359    -0.92900
O810        O  0.20622186  0.96716022  0.98673738    -0.40800
O811        O  0.14747786  0.98187112  0.94098082    -0.77400
O812        O  0.18073690  0.00186411  0.98418213    -0.96100
O813        O  0.18560854  0.04897654  0.96698685    -0.89400
O814        O  0.14952673  0.02642701  0.91718281    -0.92200
C815        C  0.21754094  0.97227043  0.88455302     1.01500
C816        C  0.18113700  0.01405188  0.80833902     1.14500
C817        C  0.26834377  0.05926237  0.92988440     1.05200
O818        O  0.23738868  0.02480732  0.01492555    -0.94400
O819        O  0.20397740  0.03715706  0.03351700    -0.90100
O820        O  0.16389524  0.02142324  0.03367803    -0.83300
C821        C  0.18406085  0.02990360  0.04891122     1.11900
O822        O  0.21191891  0.09467185  0.86816442    -0.96300
Zr823      Zr  0.18565381  0.06275519  0.90891372     1.88900
O824        O  0.13331464  0.03942915  0.96964628    -0.73000
O825        O  0.23633768  0.07898188  0.99346067    -0.52300
O826        O  0.21017497  0.09855078  0.93836522    -0.96900
O827        O  0.16517506  0.07044094  0.86042969    -0.54200
O828        O  0.15702206  0.07109279  0.93384900    -0.73500
C829        C  0.13873687  0.05930525  0.95331609     0.98800
O830        O  0.12531697  0.99653954  0.02696680    -0.62300
O831        O  0.13047509  0.95656454  0.86500647    -0.57100
O832        O  0.10962074  0.98351993  0.96325577    -0.93800
O833        O  0.10654956  0.97751995  0.90645956    -0.92200
O834        O  0.14867547  0.93663325  0.92738654    -0.92600
O835        O  0.15990118  0.94279623  0.99159795    -0.91400
C836        C  0.09738701  0.97457924  0.93662723     1.17700
H837        H  0.17864714  0.97796532  0.87264879     0.33600
H838        H  0.17991047  0.99541565  0.00748793     0.44500
H839        H  0.13567789  0.02806493  0.91177694     0.38000
H840        H  0.23270811  0.06967572  0.91344821     0.34500
H841        H  0.22220029  0.97574653  0.97580671     0.26300
H842        H  0.24941401  0.07996078  0.00839178     0.32200
H843        H  0.20074357  0.10683977  0.93837636     0.38100
H844        H  0.15376993  0.93547212  0.90422196     0.32600
H845        H  0.11333993  0.95127087  0.86184054     0.31400
H846        H  0.11302200  0.99183936  0.83235787     0.33100
H847        H  0.14806306  0.06152824  0.86670349     0.32100
H848        H  0.14967567  0.94762301  0.00333805     0.36100
H849        H  0.11168354  0.99944219  0.02297706     0.28800
H850        H  0.25683749  0.04318915  0.83678613     0.33100
H851        H  0.20797567  0.10745669  0.87027121     0.35900
H852        H  0.13671706  0.95826381  0.84144963     0.28500
H853        H  0.11843404  0.97920787  0.02727491     0.41400
H854        H  0.24972153  0.03913778  0.02533571     0.31400
H855        H  0.20740554  0.97632132  0.00658369     0.39100
H856        H  0.16680428  0.06188131  0.84161388     0.30900
H857        H  0.24442982  0.08907615  0.97255621     0.31000
H858        H  0.25190577  0.06435120  0.84037824     0.31200
Zr859      Zr  0.21392155  0.01639373  0.38341730     2.17500
O860        O  0.24266282  0.03715129  0.33669269    -0.51100
O861        O  0.22115327  0.98375079  0.37365242    -0.74300
O862        O  0.25541169  0.04064426  0.40292307    -0.81100
O863        O  0.16048509  0.99829063  0.32224319    -0.82800
O864        O  0.25392668  0.04530416  0.45985116    -0.78500
O865        O  0.20090351  0.01707425  0.32407764    -0.90100
O866        O  0.19794468  0.95220253  0.40974606    -0.76100
O867        O  0.21254923  0.99994525  0.44038364    -0.85600
O868        O  0.17694232  0.98022571  0.38862058    -0.85200
O869        O  0.21611774  0.04550604  0.42040133    -0.72000
O870        O  0.18260026  0.02608647  0.37368955    -0.84100
Zr871      Zr  0.14717023  0.00434959  0.47384781     2.26400
Zr872      Zr  0.21318347  0.02801276  0.47759053     2.06300
Zr873      Zr  0.14561844  0.98985141  0.38091760     2.10000
Zr874      Zr  0.17568741  0.96419410  0.44557910     1.78800
O875        O  0.12221219  0.00118411  0.34201354    -0.92900
O876        O  0.20031828  0.95441609  0.48441313    -0.40800
O877        O  0.14411938  0.97393828  0.43858572    -0.77400
O878        O  0.17658591  0.99198892  0.48396450    -0.96100
O879        O  0.18381847  0.04012546  0.46795144    -0.89400
O880        O  0.14824217  0.01929396  0.41611809    -0.92200
C881        C  0.21326760  0.96220807  0.38513073     1.01500
C882        C  0.18111698  0.00914556  0.30774984     1.14500
C883        C  0.26521613  0.04868673  0.43177325     1.05200
O884        O  0.23037329  0.00980695  0.51704259    -0.94400
O885        O  0.19862079  0.02608657  0.53500931    -0.90100
O886        O  0.15934234  0.01493527  0.53262643    -0.83300
C887        C  0.17884221  0.02129910  0.54914405     1.11900
O888        O  0.21510002  0.08506442  0.37095880    -0.96300
Zr889      Zr  0.18494299  0.05506739  0.41012420     1.88900
O890        O  0.13124654  0.03198183  0.46923356    -0.73000
O891        O  0.23647074  0.06643752  0.50107438    -0.52300
O892        O  0.20720758  0.09156520  0.43885894    -0.96900
O893        O  0.16722172  0.06518765  0.36030237    -0.54200
O894        O  0.15576404  0.06351048  0.43370064    -0.73500
C895        C  0.13718752  0.05199321  0.45283427     0.98800
O896        O  0.12230189  0.98099774  0.52323690    -0.62300
O897        O  0.12713736  0.95003266  0.36139558    -0.57100
O898        O  0.10638358  0.98074706  0.45844582    -0.93800
O899        O  0.10455022  0.97344364  0.40217557    -0.92200
O900        O  0.14519958  0.92807901  0.42206624    -0.92600
O901        O  0.15407171  0.93444523  0.49177776    -0.91400
C902        C  0.09480981  0.97220561  0.43125286     1.17700
H903        H  0.17549005  0.96954756  0.37159865     0.33600
H904        H  0.17496634  0.98518530  0.50721494     0.44500
H905        H  0.13486232  0.02167289  0.41039986     0.38000
H906        H  0.23095554  0.06003890  0.41707689     0.34500
H907        H  0.21659999  0.96345305  0.47452280     0.26300
H908        H  0.24981757  0.06573664  0.51326152     0.32200
H909        H  0.22351953  0.09379437  0.44097610     0.38100
H910        H  0.12997297  0.92568976  0.43142097     0.32600
H911        H  0.11128368  0.94160450  0.37270389     0.31400
H912        H  0.11132575  0.98660331  0.33073591     0.33100
H913        H  0.15053726  0.05974869  0.36710214     0.32100
H914        H  0.14658079  0.94146506  0.50523881     0.36100
H915        H  0.10952536  0.98525285  0.52428249     0.28800
H916        H  0.25512753  0.03247826  0.33994153     0.33100
H917        H  0.21218421  0.09868073  0.37018925     0.35900
H918        H  0.12373207  0.95185077  0.33682204     0.28500
H919        H  0.11422343  0.96443993  0.51680019     0.41400
H920        H  0.24019954  0.00600304  0.50239837     0.31400
H921        H  0.20108367  0.96218657  0.50566252     0.39100
H922        H  0.16596436  0.05428823  0.34291802     0.30900
H923        H  0.24396991  0.07767358  0.48092364     0.31000
H924        H  0.25055401  0.05407604  0.34125686     0.31200
Zr925      Zr  0.00988451  0.21355022  0.96951101     2.17500
O926        O  0.03741914  0.24206509  0.00844567    -0.51100
O927        O  0.97834685  0.22212394  0.98273488    -0.74300
O928        O  0.03109541  0.25425623  0.94211676    -0.81100
O929        O  0.99482256  0.16221171  0.03660927    -0.82800
O930        O  0.03084764  0.25132110  0.88438225    -0.78500
O931        O  0.00884100  0.20186722  0.03074301    -0.90100
O932        O  0.94505532  0.19842157  0.95391649    -0.76100
O933        O  0.99116420  0.21099641  0.91538175    -0.85600
O934        O  0.97342347  0.17679276  0.97267907    -0.85200
O935        O  0.03772588  0.21529847  0.92813718    -0.72000
O936        O  0.02013029  0.18276894  0.97975302    -0.84100
Zr937      Zr  0.99308213  0.14555929  0.88550833     2.26400
Zr938      Zr  0.01819557  0.21126472  0.87408773     2.06300
Zr939      Zr  0.98354961  0.14596216  0.98104322     2.10000
Zr940      Zr  0.95491828  0.17464051  0.91861053     1.78800
O941        O  0.99717371  0.12349464  0.01856788    -0.92900
O942        O  0.94323599  0.19700983  0.87751304    -0.40800
O943        O  0.96482017  0.14350407  0.92671631    -0.77400
O944        O  0.98134681  0.17529827  0.87546116    -0.96100
O945        O  0.02957005  0.18160974  0.88322508    -0.89400
O946        O  0.01115909  0.14765946  0.94013916    -0.92200
C947        C  0.95638934  0.21448795  0.97509910     1.01500
C948        C  0.00324214  0.18251654  0.04885791     1.14500
C949        C  0.03567744  0.26327258  0.91082014     1.05200
O950        O  0.00291313  0.22856420  0.82994747    -0.94400
O951        O  0.01746413  0.19732064  0.81825554    -0.90100
O952        O  0.00226532  0.15758355  0.82450819    -0.83300
C953        C  0.01091971  0.17728630  0.80621528     1.11900
O954        O  0.08072141  0.21194342  0.97091081    -0.96300
Zr955      Zr  0.04730969  0.18423351  0.93798070     1.88900
O956        O  0.02141932  0.13082116  0.88364572    -0.73000
O957        O  0.05921016  0.23332067  0.85320706    -0.52300
O958        O  0.08260875  0.20918280  0.90274757    -0.96900
O959        O  0.05925847  0.16595824  0.98543077    -0.54200
O960        O  0.05487341  0.15638619  0.91095719    -0.73500
C961        C  0.04260944  0.13775565  0.89488707     0.98800
O962        O  0.96571389  0.12024245  0.84322057    -0.62300
O963        O  0.94468659  0.12795682  0.00920706    -0.57100
O964        O  0.96979903  0.10529797  0.90891468    -0.93800
O965        O  0.96455614  0.10462589  0.96633892    -0.92200
O966        O  0.91874937  0.14474328  0.94816102    -0.92600
O967        O  0.92343068  0.15036097  0.88000055    -0.91400
C968        C  0.96181582  0.09430768  0.93828161     1.17700
H969        H  0.96342468  0.17586529  0.99139754     0.33600
H970        H  0.97384175  0.17367335  0.85333081     0.44500
H971        H  0.01387899  0.13448844  0.94572262     0.38000
H972        H  0.05222106  0.23024880  0.92823289     0.34500
H973        H  0.92756591  0.19403971  0.88592733     0.26300
H974        H  0.05873725  0.24336119  0.83325901     0.32200
H975        H  0.09185144  0.20067346  0.90364330     0.38100
H976        H  0.91840628  0.15146965  0.96996224     0.32600
H977        H  0.94271756  0.11307757  0.02081238     0.31400
H978        H  0.98350018  0.11342015  0.03411199     0.33100
H979        H  0.05251116  0.14925563  0.98014466     0.32100
H980        H  0.93085864  0.14401969  0.86507081     0.36100
H981        H  0.96809507  0.10631447  0.84343226     0.28800
H982        H  0.03281502  0.25451670  0.00855282     0.33100
H983        H  0.07714254  0.22478009  0.97465051     0.35900
H984        H  0.94669910  0.13804186  0.02821772     0.28500
H985        H  0.94962485  0.11421285  0.85318664     0.41400
H986        H  0.98540254  0.21879544  0.83199720     0.31400
H987        H  0.95418346  0.21374091  0.88168749     0.39100
H988        H  0.04977521  0.16542644  0.00538315     0.30900
H989        H  0.06813189  0.24453928  0.87085692     0.31000
H990        H  0.05312315  0.24970534  0.99668458     0.31200
Zr991      Zr  0.01240008  0.21596401  0.46949858     2.17500
O992        O  0.03749068  0.24447681  0.51028577    -0.51100
O993        O  0.98015225  0.22375513  0.48212760    -0.74300
O994        O  0.03396819  0.25683009  0.44329563    -0.81100
O995        O  0.99467879  0.16361076  0.53537776    -0.82800
O996        O  0.03496303  0.25452253  0.38555412    -0.78500
O997        O  0.01241973  0.20366572  0.53022371    -0.90100
O998        O  0.94929651  0.20313862  0.44700495    -0.76100
O999        O  0.99662363  0.21500214  0.41343403    -0.85600
O1000       O  0.97532309  0.17979788  0.46931177    -0.85200
O1001       O  0.04190557  0.21806840  0.43060750    -0.72000
O1002       O  0.02115833  0.18428841  0.48101123    -0.84100
Zr1003     Zr  0.99886899  0.14898031  0.38578933     2.26400
Zr1004     Zr  0.02486011  0.21501710  0.37471778     2.06300
Zr1005     Zr  0.98413901  0.14813382  0.47910643     2.10000
Zr1006     Zr  0.95999924  0.17934460  0.41313832     1.78800
O1007       O  0.99298925  0.12279138  0.51860433    -0.92900
O1008       O  0.95337718  0.20490922  0.37080244    -0.40800
O1009       O  0.96847292  0.14714176  0.42274625    -0.77400
O1010       O  0.98790881  0.17922729  0.37349229    -0.96100
O1011       O  0.03556403  0.18490285  0.38605781    -0.89400
O1012       O  0.01397976  0.15022722  0.44223492    -0.92200
C1013       C  0.95906651  0.21738213  0.47098802     1.01500
C1014       C  0.00505083  0.18389687  0.54805337     1.14500
C1015       C  0.03885158  0.26612997  0.41222032     1.05200
O1016       O  0.01258088  0.23322011  0.32762956    -0.94400
O1017       O  0.02361739  0.20067096  0.31892975    -0.90100
O1018       O  0.00863841  0.16101841  0.32517181    -0.83300
C1019       C  0.01683649  0.18061036  0.30678444     1.11900
O1020       O  0.08096860  0.21729664  0.47598882    -0.96300
Zr1021     Zr  0.05053525  0.18647303  0.44277092     1.88900
O1022       O  0.02720884  0.13384228  0.38818904    -0.73000
O1023       O  0.06660278  0.23810770  0.35743241    -0.52300
O1024       O  0.08784192  0.20778821  0.41045190    -0.96900
O1025       O  0.06096281  0.16961561  0.49371517    -0.54200
O1026       O  0.05850591  0.15721731  0.42112329    -0.73500
C1027       C  0.04716808  0.13938026  0.40309826     0.98800
O1028       O  0.97420972  0.12330783  0.34169526    -0.62300
O1029       O  0.94406858  0.13160508  0.50264285    -0.57100
O1030       O  0.97482285  0.10830988  0.40696212    -0.93800
O1031       O  0.96578016  0.10700253  0.46305597    -0.92200
O1032       O  0.92153591  0.15023107  0.43771723    -0.92600
O1033       O  0.93001825  0.15808814  0.37080039    -0.91400
C1034       C  0.96490338  0.09695296  0.43534008     1.17700
H1035       H  0.96448544  0.17863945  0.48694194     0.33600
H1036       H  0.98120457  0.17774597  0.35079303     0.44500
H1037       H  0.01615597  0.13682082  0.44875412     0.38000
H1038       H  0.05639739  0.23293765  0.43185053     0.34500
H1039       H  0.96236369  0.22091103  0.37928193     0.26300
H1040       H  0.06664636  0.24768406  0.33653166     0.32200
H1041       H  0.08318163  0.20903857  0.38636140     0.38100
H1042       H  0.92024700  0.15654766  0.45941822     0.32600
H1043       H  0.93351256  0.12379423  0.48332377     0.31400
H1044       H  0.98018659  0.11639842  0.53624653     0.33100
H1045       H  0.05365103  0.15256614  0.49026681     0.32100
H1046       H  0.93293518  0.14506715  0.36544367     0.36100
H1047       H  0.97811815  0.11035699  0.34175816     0.28800
H1048       H  0.03236908  0.25658063  0.50946032     0.33100
H1049       H  0.09436015  0.21386990  0.47761696     0.35900
H1050       H  0.94222796  0.11840953  0.51886295     0.28500
H1051       H  0.95762542  0.11581499  0.35041229     0.41400
H1052       H  0.02756174  0.24519018  0.31604006     0.31400
H1053       H  0.96234491  0.20560022  0.35012959     0.39100
H1054       H  0.05149201  0.17047496  0.51259851     0.30900
H1055       H  0.07426238  0.24969244  0.37507801     0.31000
H1056       H  0.05370582  0.25259615  0.50007629     0.31200
Zr1057     Zr  0.86276256  0.86354548  0.97753155     2.17500
O1058       O  0.86903483  0.89364072  0.01670219    -0.51100
O1059       O  0.90568935  0.87681119  0.97985155    -0.74300
O1060       O  0.85793522  0.84974834  0.03824202    -0.81100
O1061       O  0.86892986  0.90645090  0.90161962    -0.82800
O1062       O  0.83664445  0.80980578  0.04297208    -0.78500
O1063       O  0.87612824  0.90428273  0.95853036    -0.90100
O1064       O  0.91385264  0.85510662  0.94507567    -0.76100
O1065       O  0.86446472  0.82793827  0.97645722    -0.85600
O1066       O  0.87654385  0.86367578  0.92150301    -0.85200
O1067       O  0.82210583  0.83292383  0.98749485    -0.72000
O1068       O  0.83407749  0.86579192  0.93880614    -0.84100
Zr1069     Zr  0.80968957  0.79857360  0.88947503     2.26400
Zr1070     Zr  0.82427013  0.79733574  0.98534921     2.06300
Zr1071     Zr  0.84837746  0.86604753  0.88295800     2.10000
Zr1072     Zr  0.87721018  0.82743542  0.91999016     1.78800
O1073       O  0.82390016  0.88218268  0.85795762    -0.92900
O1074       O  0.89009655  0.80287879  0.95403472    -0.40800
O1075       O  0.84975824  0.83000613  0.88003903    -0.77400
O1076       O  0.83756747  0.79584044  0.92933400    -0.96100
O1077       O  0.79566448  0.79828103  0.94554210    -0.89400
O1078       O  0.80830353  0.83455379  0.89053914    -0.92200
C1079       C  0.92017948  0.87161124  0.96549700     1.01500
C1080       C  0.87715332  0.91600406  0.93019838     1.14500
C1081       C  0.84802979  0.82987498  0.05603565     1.05200
O1082       O  0.84537864  0.77600570  0.00350013    -0.94400
O1083       O  0.79946232  0.75745459  0.96976022    -0.90100
O1084       O  0.79040953  0.75741109  0.91289371    -0.83300
C1085       C  0.78937318  0.74705117  0.94266344     1.11900
O1086       O  0.78646364  0.85501037  0.98910654    -0.96300
Zr1087     Zr  0.79395531  0.83379006  0.94637670     1.88900
O1088       O  0.76928440  0.79038289  0.87598750    -0.73000
O1089       O  0.79350052  0.77717266  0.02959706    -0.52300
O1090       O  0.76207865  0.80627498  0.98546242    -0.96900
O1091       O  0.78394653  0.86341200  0.92229379    -0.54200
O1092       O  0.75943287  0.81085699  0.91070278    -0.73500
C1093       C  0.75459966  0.79656429  0.88681278     0.98800
O1094       O  0.80574390  0.76788002  0.85314222    -0.62300
O1095       O  0.88114887  0.89169009  0.84372648    -0.57100
O1096       O  0.81989825  0.81255729  0.82899561    -0.93800
O1097       O  0.84391172  0.85229718  0.82595562    -0.92200
O1098       O  0.90593525  0.84642571  0.87304073    -0.92600
O1099       O  0.88005136  0.79992008  0.88379236    -0.91400
C1100       C  0.83292461  0.83246658  0.81220167     1.17700
H1101       H  0.89199272  0.87717627  0.91650137     0.33600
H1102       H  0.83758572  0.78112492  0.92755353     0.44500
H1103       H  0.79839832  0.83598933  0.87258001     0.38000
H1104       H  0.81673728  0.83379237  0.00994757     0.34500
H1105       H  0.90528328  0.80627416  0.94322405     0.26300
H1106       H  0.77855781  0.76803025  0.01701591     0.32200
H1107       H  0.77031648  0.80325210  0.00531608     0.38100
H1108       H  0.90744059  0.86228558  0.86902439     0.32600
H1109       H  0.87724752  0.90391191  0.83427481     0.31400
H1110       H  0.82662079  0.88336052  0.83287248     0.33100
H1111       H  0.78032213  0.85994941  0.89790044     0.32100
H1112       H  0.86480489  0.79272810  0.87129241     0.36100
H1113       H  0.79506042  0.76757493  0.83423202     0.28800
H1114       H  0.88141331  0.89442663  0.03299791     0.33100
H1115       H  0.76921476  0.84971996  0.98786505     0.35900
H1116       H  0.89516115  0.90016416  0.85842127     0.28500
H1117       H  0.82154308  0.77393986  0.84217076     0.41400
H1118       H  0.83415091  0.76279713  0.01924042     0.31400
H1119       H  0.89482904  0.81005280  0.97643204     0.39100
H1120       H  0.79917278  0.87844217  0.92159288     0.30900
H1121       H  0.79693010  0.76510466  0.04108637     0.31000
H1122       H  0.85423191  0.88713093  0.03056585     0.31200
Zr1123     Zr  0.86041940  0.86660132  0.47590569     2.17500
O1124       O  0.86040318  0.89421633  0.51506797    -0.51100
O1125       O  0.90348830  0.88090383  0.47649334    -0.74300
O1126       O  0.85948060  0.85390537  0.53667718    -0.81100
O1127       O  0.86746942  0.90827385  0.39859187    -0.82800
O1128       O  0.83418017  0.81448636  0.54298584    -0.78500
O1129       O  0.87559187  0.90714158  0.45541685    -0.90100
O1130       O  0.91055144  0.85751033  0.44357057    -0.76100
O1131       O  0.86115858  0.83048516  0.47603122    -0.85600
O1132       O  0.87347729  0.86546552  0.41985522    -0.85200
O1133       O  0.81983689  0.83687065  0.48723550    -0.72000
O1134       O  0.83192610  0.86875023  0.43664252    -0.84100
Zr1135     Zr  0.80591042  0.79952928  0.39136973     2.26400
Zr1136     Zr  0.82080189  0.80075353  0.48650171     2.06300
Zr1137     Zr  0.84538598  0.86734286  0.38089283     2.10000
Zr1138     Zr  0.87370845  0.82900314  0.41990033     1.78800
O1139       O  0.82217625  0.88412135  0.35320218    -0.92900
O1140       O  0.88746868  0.80486977  0.45305468    -0.40800
O1141       O  0.84589738  0.83072922  0.38014602    -0.77400
O1142       O  0.83417382  0.79771777  0.43128362    -0.96100
O1143       O  0.79212259  0.80114927  0.44659521    -0.89400
O1144       O  0.80523763  0.83612239  0.39041467    -0.92200
C1145       C  0.91749192  0.87502424  0.46226849     1.01500
C1146       C  0.87651140  0.91837172  0.42667400     1.14500
C1147       C  0.84806449  0.83441544  0.55511891     1.05200
O1148       O  0.83855021  0.77865004  0.51505173    -0.94400
O1149       O  0.79916227  0.76029019  0.47345235    -0.90100
O1150       O  0.79097593  0.75848877  0.41637598    -0.83300
C1151       C  0.79062662  0.74884827  0.44664889     1.11900
O1152       O  0.78554669  0.86047566  0.48729274    -0.96300
Zr1153     Zr  0.79171708  0.83749406  0.44601818     1.88900
O1154       O  0.76601702  0.79298331  0.37896856    -0.73000
O1155       O  0.78515664  0.78276463  0.52262483    -0.52300
O1156       O  0.76101802  0.81320073  0.48882970    -0.96900
O1157       O  0.78220056  0.86665730  0.41848154    -0.54200
O1158       O  0.75651483  0.81431765  0.41232445    -0.73500
C1159       C  0.75158404  0.79965984  0.38905060     0.98800
O1160       O  0.79143055  0.76659025  0.35450729    -0.62300
O1161       O  0.87819941  0.89109355  0.34077356    -0.57100
O1162       O  0.82014568  0.81178467  0.33145098    -0.93800
O1163       O  0.84122164  0.85179319  0.32492449    -0.92200
O1164       O  0.90207944  0.84715537  0.37235800    -0.92600
O1165       O  0.87547318  0.80131567  0.38288418    -0.91400
C1166       C  0.83209471  0.83129393  0.31307310     1.17700
H1167       H  0.88891197  0.87877374  0.41411686     0.33600
H1168       H  0.83459392  0.78315121  0.43032737     0.44500
H1169       H  0.79526098  0.83730795  0.37237294     0.38000
H1170       H  0.81498356  0.83844359  0.50967144     0.34500
H1171       H  0.88892633  0.80971478  0.47686365     0.26300
H1172       H  0.78729162  0.77167151  0.53910173     0.32200
H1173       H  0.75132459  0.79787822  0.47861057     0.38100
H1174       H  0.90054085  0.86105438  0.36394619     0.32600
H1175       H  0.87528745  0.90401167  0.33150138     0.31400
H1176       H  0.81436055  0.87428576  0.33366061     0.33100
H1177       H  0.77727303  0.86160572  0.39493082     0.32100
H1178       H  0.86266945  0.79805157  0.36598293     0.36100
H1179       H  0.78296133  0.77018520  0.33550617     0.28800
H1180       H  0.87395970  0.89795886  0.53071012     0.33100
H1181       H  0.76899818  0.85738177  0.48386004     0.35900
H1182       H  0.89251950  0.89886846  0.35515449     0.28500
H1183       H  0.80574400  0.76775067  0.34370963     0.41400
H1184       H  0.82755704  0.76932580  0.53436615     0.31400
H1185       H  0.87374611  0.78868167  0.45399312     0.39100
H1186       H  0.79772803  0.88125242  0.41532956     0.30900
H1187       H  0.78665387  0.79548170  0.53668628     0.31000
H1188       H  0.84596233  0.88509395  0.52965608     0.31200
C1189       C  0.85899696  0.85168690  0.72190862    -0.28000
C1190       C  0.84214419  0.83347847  0.70284143     0.05600
C1191       C  0.82223481  0.81470074  0.72005206     0.25200
C1192       C  0.81937377  0.81431321  0.75559564    -0.12500
C1193       C  0.83608737  0.83276095  0.77458873    -0.26400
C1194       C  0.85602653  0.85149384  0.75724430     0.36100
C1195       C  0.84546539  0.83431472  0.66511947     0.05600
F1196       F  0.80518168  0.79705979  0.70240479    -0.20200
H1197       H  0.80383487  0.79975692  0.76816226     0.15500
F1198       F  0.87304403  0.86947791  0.77441266    -0.23900
H1199       H  0.87470495  0.86607272  0.70942987     0.17300
C1200       C  0.85125421  0.85499141  0.64423801     0.25300
C1201       C  0.85349638  0.85530917  0.60862504    -0.12400
C1202       C  0.84968075  0.83497728  0.59302754    -0.26500
C1203       C  0.84471050  0.81454766  0.61405385     0.36200
C1204       C  0.84276185  0.81433291  0.64969071    -0.28100
F1205       F  0.85353898  0.87454837  0.65801187    -0.20200
H1206       H  0.85703389  0.87116340  0.59309662     0.15500
F1207       F  0.84147857  0.79466333  0.60019996    -0.23900
H1208       H  0.83892858  0.79841396  0.66527326     0.17300
C1209       C  0.84335723  0.81036712  0.15122659    -0.28000
C1210       C  0.84500287  0.83002983  0.16645403     0.05600
C1211       C  0.84920678  0.85010704  0.14512368     0.25200
C1212       C  0.85111875  0.85018777  0.10948638    -0.12500
C1213       C  0.84865971  0.83024272  0.09411871    -0.26400
C1214       C  0.84508090  0.81037396  0.11549707     0.36100
C1215       C  0.84221291  0.82955259  0.20437786     0.05600
F1216       F  0.85046844  0.86935831  0.15851910    -0.20200
H1217       H  0.85364724  0.86565611  0.09379004     0.15500
F1218       F  0.84333773  0.79096186  0.10197307    -0.23900
H1219       H  0.84072955  0.79491876  0.16705770     0.17300
C1220       C  0.82329554  0.81029158  0.22259866     0.25300
C1221       C  0.82038082  0.81067005  0.25800877    -0.25000
C1222       C  0.83606846  0.83031336  0.27594729    -0.26500
C1223       C  0.85540183  0.84923885  0.25782032     0.36200
C1224       C  0.85837985  0.84875478  0.22258865    -0.28100
F1225       F  0.80704643  0.79148689  0.20599415    -0.20200
H1226       H  0.80539787  0.79584735  0.27119912     0.15500
F1227       F  0.87173005  0.86817402  0.27411748    -0.23900
H1228       H  0.87348014  0.86349256  0.20947315     0.17300
C1229       C  0.90002710  0.98393550  0.40073207    -0.28000
C1230       C  0.91311703  0.99456863  0.42996490     0.05600
C1231       C  0.91406175  0.98002905  0.45759621     0.25200
C1232       C  0.90226792  0.95553124  0.45599861    -0.12500
C1233       C  0.88905445  0.94468833  0.42687438    -0.26400
C1234       C  0.88804187  0.95927790  0.39914944     0.36100
C1235       C  0.92615318  0.02074753  0.43145323     0.05600
F1236       F  0.92697522  0.98955086  0.48589638    -0.20200
H1237       H  0.90369691  0.94504133  0.47779340     0.15500
F1238       F  0.87523274  0.94981133  0.37076485    -0.23900
H1239       H  0.89888887  0.99477218  0.37918633     0.17300
C1240       C  0.94217047  0.03522245  0.40518034     0.25300
C1241       C  0.95468366  0.05973852  0.40699665    -0.12400
C1242       C  0.95172787  0.07060371  0.43512030    -0.26500
C1243       C  0.93593742  0.05600715  0.46175691     0.36200
C1244       C  0.92326902  0.03140746  0.45976735    -0.28100
F1245       F  0.94628082  0.02561398  0.37816022    -0.20200
H1246       H  0.96690449  0.07023520  0.38621966     0.15500
F1247       F  0.93243403  0.06539600  0.48952389    -0.23900
H1248       H  0.91103097  0.02062257  0.48037635     0.17300
C1249       C  0.99744680  0.16000113  0.71424399    -0.28000
C1250       C  0.01503238  0.18023992  0.69597457     0.05600
C1251       C  0.03226459  0.19871727  0.71442167     0.25200
C1252       C  0.03118807  0.19730328  0.75032032    -0.12500
C1253       C  0.01321533  0.17729638  0.76856035    -0.26400
C1254       C  0.99663009  0.15839380  0.75015367     0.36100
C1255       C  0.01453368  0.18217540  0.65783780     0.05600
F1256       F  0.05017820  0.21807466  0.69778363    -0.20200
H1257       H  0.04436668  0.21199294  0.76392510     0.15500
F1258       F  0.97883848  0.13890320  0.76667790    -0.23900
H1259       H  0.98380767  0.14564723  0.70062794     0.17300
C1260       C  0.01166134  0.16342030  0.63890597     0.25300
C1261       C  0.00897827  0.16440215  0.60333837    -0.12400
C1262       C  0.00911682  0.18408872  0.58567960    -0.26500
C1263       C  0.01276794  0.20324247  0.60447697     0.36200
C1264       C  0.01540245  0.20220825  0.64022343    -0.28100
F1265       F  0.01141986  0.14406929  0.65481332    -0.20200
H1266       H  0.00666704  0.14955945  0.58959483     0.15500
F1267       F  0.01278491  0.22250788  0.58866094    -0.23900
H1268       H  0.01728749  0.21675499  0.65431647     0.17300
C1269       C  0.00193780  0.16048242  0.21615385    -0.28000
C1270       C  0.01508770  0.18182502  0.19639550     0.05600
C1271       C  0.03015622  0.20228368  0.21313326     0.25200
C1272       C  0.03128388  0.20151812  0.24895126    -0.12500
C1273       C  0.01763712  0.18030346  0.26888461    -0.26400
C1274       C  0.00331922  0.15960016  0.25198560     0.36100
C1275       C  0.01280338  0.18261015  0.15846875     0.05600
F1276       F  0.04394713  0.22299500  0.19485434    -0.20200
H1277       H  0.04270315  0.21769972  0.26111692     0.15500
F1278       F  0.98985085  0.13867199  0.26992996    -0.23900
H1279       H  0.99009256  0.14450647  0.20383251     0.17300
C1280       C  0.01434835  0.16584525  0.13954468     0.25300
C1281       C  0.01132880  0.16611984  0.10402373    -0.12400
C1282       C  0.00702939  0.18328364  0.08644367    -0.26500
C1283       C  0.00599814  0.20042289  0.10524837     0.36200
C1284       C  0.00866972  0.19991608  0.14098178    -0.28100
F1285       F  0.01923518  0.14944051  0.15532114    -0.20200
H1286       H  0.01258699  0.15292981  0.09015488     0.15500
F1287       F  0.00167942  0.21717567  0.08935333    -0.23900
H1288       H  0.00713874  0.21285515  0.15509828     0.17300
C1289       C  0.89902104  0.98133039  0.90533007    -0.28000
C1290       C  0.91134309  0.99197817  0.93500412     0.05600
C1291       C  0.91222403  0.97750358  0.96281448     0.25200
C1292       C  0.90107751  0.95302368  0.96090542    -0.12500
C1293       C  0.88876494  0.94222258  0.93120915    -0.26400
C1294       C  0.88791241  0.95678780  0.90329498     0.36100
C1295       C  0.92402695  0.01815518  0.93629662     0.05600
F1296       F  0.92457578  0.98708096  0.99147986    -0.20200
H1297       H  0.90239482  0.94253604  0.98279064     0.15500
F1298       F  0.87628031  0.94744076  0.87407668    -0.23900
H1299       H  0.89796116  0.99208868  0.88360588     0.17300
C1300       C  0.93972730  0.03257283  0.90967113     0.25300
C1301       C  0.95191574  0.05706333  0.91099424    -0.12400
C1302       C  0.94886938  0.06801841  0.93883452    -0.26500
C1303       C  0.93322421  0.05359328  0.96571970     0.36200
C1304       C  0.92095783  0.02892369  0.96435302    -0.28100
F1305       F  0.94381381  0.02296605  0.88264334    -0.20200
H1306       H  0.96398513  0.06749249  0.89002704     0.15500
F1307       F  0.92931546  0.06322514  0.99287267    -0.23900
H1308       H  0.90881765  0.01819910  0.98509172     0.17300
C1309       C  0.97890604  0.92859290  0.45987568    -0.28000
C1310       C  0.99311546  0.91823624  0.45402928     0.05600
C1311       C  0.98257930  0.89354091  0.45588769     0.25200
C1312       C  0.95809982  0.87959686  0.46110981    -0.12500
C1313       C  0.94358195  0.88989349  0.46493027    -0.26400
C1314       C  0.95431347  0.91458634  0.46526320     0.36100
C1315       C  0.01886949  0.93317380  0.44621986     0.05600
F1316       F  0.99592482  0.88285571  0.45244575    -0.20200
H1317       H  0.95033151  0.86061819  0.46107452     0.15500
F1318       F  0.94093614  0.92527717  0.46827556    -0.23900
H1319       H  0.98673007  0.94760662  0.45888391     0.17300
C1320       C  0.02947929  0.92940634  0.41792545     0.25300
C1321       C  0.05410014  0.94263822  0.41233320    -0.12400
C1322       C  0.06851284  0.95994346  0.43467604    -0.26500
C1323       C  0.05757722  0.96458534  0.46180364     0.36200
C1324       C  0.03308230  0.95123347  0.46748554    -0.28100
F1325       F  0.01602385  0.91300954  0.39558431    -0.20200
H1326       H  0.06193549  0.93893261  0.39103178     0.15500
F1327       F  0.07049753  0.98200700  0.48305882    -0.23900
H1328       H  0.02525386  0.95469183  0.48906423     0.17300
C1329       C  0.11546203  0.09635465  0.44831684    -0.28000
C1330       C  0.09293601  0.08357128  0.43342599     0.05600
C1331       C  0.08394873  0.05930566  0.42963451     0.25200
C1332       C  0.09765238  0.04848953  0.43944243    -0.12500
C1333       C  0.12067965  0.06170486  0.45246207    -0.26400
C1334       C  0.12929152  0.08565866  0.45736443     0.36100
C1335       C  0.07976446  0.09615990  0.42082153     0.05600
F1336       F  0.06277014  0.04642803  0.41413790    -0.20200
H1337       H  0.09098997  0.03017015  0.43442482     0.15500
F1338       F  0.15148809  0.09892660  0.46974922    -0.23900
H1339       H  0.12269539  0.11492554  0.45210622     0.17300
C1340       C  0.05547736  0.08722231  0.42862326     0.25300
C1341       C  0.04421527  0.10054127  0.41925370    -0.12400
C1342       C  0.05706191  0.12321466  0.40292395    -0.26500
C1343       C  0.08104840  0.13189408  0.39424335     0.36200
C1344       C  0.09212876  0.11832628  0.40258157    -0.28100
F1345       F  0.04312828  0.06660064  0.44781446    -0.20200
H1346       H  0.02593477  0.09393896  0.42729262     0.15500
F1347       F  0.09403962  0.15398133  0.37919700    -0.23900
H1348       H  0.11074257  0.12558342  0.39593468     0.17300
C1349       C  0.16037522  0.00192099  0.71631552    -0.28000
C1350       C  0.17905054  0.02101975  0.69788289     0.05600
C1351       C  0.19830107  0.03789644  0.71601233     0.25200
C1352       C  0.19911396  0.03529207  0.75182670    -0.12500
C1353       C  0.18057886  0.01604717  0.77031335    -0.26400
C1354       C  0.16106912  0.99937467  0.75216085     0.36100
C1355       C  0.17913911  0.02230849  0.65977226     0.05600
F1356       F  0.21620949  0.05706948  0.69907175    -0.20200
H1357       H  0.21407796  0.04858906  0.76516776     0.15500
F1358       F  0.14297721  0.98022619  0.76891282    -0.23900
H1359       H  0.14552244  0.98860234  0.70282380     0.17300
C1360       C  0.19841161  0.02363245  0.64186173     0.25300
C1361       C  0.19821479  0.02376341  0.60611421    -0.12400
C1362       C  0.17876308  0.02247300  0.58713384    -0.26500
C1363       C  0.15944728  0.02134480  0.60511827     0.36200
C1364       C  0.15966022  0.02114552  0.64113088    -0.28100
F1365       F  0.21710407  0.02384706  0.65905819    -0.20200
H1366       H  0.21324850  0.02434688  0.59336170     0.15500
F1367       F  0.14041704  0.02048975  0.58810150    -0.23900
H1368       H  0.14460824  0.02009128  0.65452476     0.17300
C1369       C  0.20339720  0.03025412  0.14151606    -0.28000
C1370       C  0.18308198  0.02639597  0.15952429     0.05600
C1371       C  0.16384490  0.02588140  0.14078175     0.25200
C1372       C  0.16441110  0.02753037  0.10483028    -0.12500
C1373       C  0.18439613  0.03041854  0.08685108    -0.26400
C1374       C  0.20423083  0.03247395  0.10571802     0.36100
C1375       C  0.18215314  0.02228155  0.19759293     0.05600
F1376       F  0.14458252  0.02401396  0.15709870    -0.20200
H1377       H  0.14911863  0.02643800  0.09106498     0.15500
F1378       F  0.22414969  0.03557208  0.08978211    -0.23900
H1379       H  0.21848144  0.03076695  0.15517329     0.17300
C1380       C  0.16199348  0.00368740  0.21450419     0.25300
C1381       C  0.16185510  0.99951383  0.25017603    -0.12400
C1382       C  0.18195958  0.01333874  0.26975599    -0.26500
C1383       C  0.20229696  0.03161439  0.25270844     0.36200
C1384       C  0.20223662  0.03610002  0.21715485    -0.28100
F1385       F  0.14274003  0.98890679  0.19652603    -0.20200
H1386       H  0.14604547  0.98512909  0.26244284     0.15500
F1387       F  0.22211784  0.04558503  0.27033738    -0.23900
H1388       H  0.21799896  0.05053096  0.20486255     0.17300
C1389       C  0.98606067  0.89195738  0.96248792    -0.28000
C1390       C  0.99585520  0.91644141  0.96324633     0.05600
C1391       C  0.98075678  0.92578219  0.96937252     0.25200
C1392       C  0.95611783  0.91085359  0.97289961    -0.12500
C1393       C  0.94616786  0.88643708  0.97016729    -0.26400
C1394       C  0.96152645  0.87705780  0.96597641     0.36100
C1395       C  0.02161484  0.93199286  0.95589141     0.05600
F1396       F  0.98962469  0.94943422  0.96965617    -0.20200
H1397       H  0.94471490  0.91856731  0.97556784     0.15500
F1398       F  0.95275126  0.85351605  0.96395706    -0.23900
H1399       H  0.99743654  0.88441505  0.95826674     0.17300
C1400       C  0.03655771  0.94750764  0.97990544     0.25300
C1401       C  0.06094994  0.96134938  0.97308442    -0.12400
C1402       C  0.07109570  0.96017079  0.94210433    -0.26500
C1403       C  0.05591167  0.94494469  0.91774253     0.36200
C1404       C  0.03148542  0.93088627  0.92480482    -0.28100
F1405       F  0.02771177  0.94872938  0.01044605    -0.20200
H1406       H  0.07194000  0.97295836  0.99239847     0.15500
F1407       F  0.06460964  0.94322006  0.88743519    -0.23900
H1408       H  0.02017617  0.91906155  0.90590266     0.17300
C1409       C  0.08434086  0.06413411  0.93094188    -0.28000
C1410       C  0.09333936  0.08862077  0.93081550     0.05600
C1411       C  0.11603464  0.10259793  0.94469021     0.25200
C1412       C  0.13022481  0.09254253  0.95504962    -0.12500
C1413       C  0.12175845  0.06831947  0.95299329    -0.26400
C1414       C  0.09833731  0.05401049  0.94209441     0.36100
C1415       C  0.07911722  0.09937932  0.91583273     0.05600
F1416       F  0.12471475  0.12603353  0.94765774    -0.20200
H1417       H  0.14826263  0.10384450  0.96327883     0.15500
F1418       F  0.08983361  0.03062778  0.93889356    -0.23900
H1419       H  0.06688877  0.05294256  0.92069951     0.17300
C1420       C  0.08966519  0.12009499  0.89382356     0.25300
C1421       C  0.07679128  0.13159633  0.88358913    -0.12400
C1422       C  0.05299856  0.12216226  0.89392425    -0.26500
C1423       C  0.04173771  0.10025322  0.91280350     0.36200
C1424       C  0.05477928  0.08909561  0.92393079    -0.28100
F1425       F  0.11256949  0.12957939  0.88294220    -0.20200
H1426       H  0.08576625  0.14856391  0.86921755     0.15500
F1427       F  0.01886751  0.09097793  0.92376609    -0.23900
H1428       H  0.04613480  0.07304544  0.94046283     0.17300
C1429       C  0.64121175  0.74334722  0.84021975    -0.28000
C1430       C  0.66162470  0.76028705  0.82205459     0.05600
C1431       C  0.65908386  0.76750200  0.78797946     0.25200
C1432       C  0.63656591  0.75783481  0.77258403    -0.12500
C1433       C  0.61624262  0.74039717  0.79054676    -0.26400
C1434       C  0.61885586  0.73341456  0.82475449     0.36100
C1435       C  0.68542563  0.76973599  0.83863299     0.05600
F1436       F  0.67837326  0.78389702  0.76955661    -0.20200
H1437       H  0.63514802  0.76342615  0.74622787     0.15500
F1438       F  0.59976395  0.71683930  0.84339225    -0.23900
H1439       H  0.64265935  0.73731133  0.86630407     0.17300
C1440       C  0.68936566  0.77875353  0.87134943     0.25300
C1441       C  0.71176062  0.78738404  0.88676999    -0.12400
C1442       C  0.73069104  0.78686419  0.87031699    -0.26500
C1443       C  0.72650129  0.77731282  0.83783595     0.36200
C1444       C  0.70421518  0.76905442  0.82222979    -0.28100
F1445       F  0.67166599  0.77963743  0.88819615    -0.20200
H1446       H  0.71423973  0.79442068  0.91178297     0.15500
F1447       F  0.74399080  0.77623787  0.82071588    -0.23900
H1448       H  0.70153383  0.76179602  0.79734914     0.17300
C1449       C  0.49571819  0.68919159  0.50575122    -0.28000
C1450       C  0.50630688  0.67740030  0.49101729     0.05600
C1451       C  0.51393017  0.66422146  0.51238143     0.25200
C1452       C  0.51164425  0.66339359  0.54785065    -0.12500
C1453       C  0.50184609  0.67580476  0.56296511    -0.26400
C1454       C  0.49345253  0.68842392  0.54150710     0.36100
C1455       C  0.50918834  0.67850696  0.45340835     0.05600
F1456       F  0.52346939  0.65197950  0.49890607    -0.20200
H1457       H  0.51797970  0.65323487  0.56358800     0.15500
F1458       F  0.48403796  0.70077691  0.55493188    -0.23900
H1459       H  0.48970013  0.69942664  0.48955028     0.17300
C1460       C  0.48949533  0.67212228  0.43192479     0.25300
C1461       C  0.49219097  0.67259167  0.39653261    -0.12400
C1462       C  0.51448675  0.67916094  0.38192615    -0.26500
C1463       C  0.53417024  0.68518265  0.40342650     0.36200
C1464       C  0.53151950  0.68501262  0.43892164    -0.28100
F1465       F  0.46753283  0.66481184  0.44524878    -0.20200
H1466       H  0.47671698  0.66764275  0.38044567     0.15500
F1467       F  0.55600831  0.69193493  0.39011672    -0.23900
H1468       H  0.54692518  0.69004526  0.45516767     0.17300
C1469       C  0.48844855  0.66601208  0.93438221    -0.28000
C1470       C  0.50779311  0.66879264  0.95474607     0.05600
C1471       C  0.52904647  0.67329784  0.93848738     0.25200
C1472       C  0.53094292  0.67556406  0.90257325    -0.12500
C1473       C  0.51183871  0.67367465  0.88227537    -0.26400
C1474       C  0.49038354  0.66849528  0.89863341     0.36100
C1475       C  0.50557924  0.66707927  0.99277622     0.05600
F1476       F  0.54830123  0.67645542  0.95725427    -0.20200
H1477       H  0.54764025  0.67959968  0.89067412     0.15500
F1478       F  0.47109350  0.66558787  0.88014733    -0.23900
H1479       H  0.47170054  0.66186918  0.94622125     0.17300
C1480       C  0.49601021  0.67924603  0.00918333     0.25300
C1481       C  0.49412574  0.67760733  0.04500936    -0.12400
C1482       C  0.50209071  0.66416715  0.06523923    -0.26500
C1483       C  0.51126669  0.65166165  0.04876753     0.36200
C1484       C  0.51284918  0.65305877  0.01295256    -0.28100
F1485       F  0.48938930  0.69352798  0.99069305    -0.20200
H1486       H  0.48730897  0.68765617  0.05696531     0.15500
F1487       F  0.51864221  0.63796877  0.06719188    -0.23900
H1488       H  0.51973774  0.64309013  0.00093892     0.17300
C1489       C  0.63970267  0.74555466  0.34021794    -0.28000
C1490       C  0.65981333  0.76309813  0.32232225     0.05600
C1491       C  0.65738219  0.76995117  0.28806705     0.25200
C1492       C  0.63518956  0.75898702  0.27185936    -0.12500
C1493       C  0.61520795  0.74069134  0.28936255    -0.26400
C1494       C  0.61768755  0.73438445  0.32405339     0.36100
C1495       C  0.68338498  0.77311348  0.33910960     0.05600
F1496       F  0.67653721  0.78710820  0.27025393    -0.20200
H1497       H  0.63384622  0.76416689  0.24526213     0.15500
F1498       F  0.59886211  0.71717043  0.34243676    -0.23900
H1499       H  0.64120948  0.73998524  0.36656449     0.17300
C1500       C  0.68741441  0.78408669  0.37020568     0.25300
C1501       C  0.70954765  0.79268998  0.38631641    -0.12400
C1502       C  0.72798065  0.79017114  0.37205335    -0.26500
C1503       C  0.72368321  0.77886901  0.34100926     0.36200
C1504       C  0.70168839  0.77061067  0.32476957    -0.28100
F1505       F  0.67003031  0.78676007  0.38473926    -0.20200
H1506       H  0.71218835  0.80121831  0.41011007     0.15500
F1507       F  0.74075636  0.77597131  0.32592361    -0.23900
H1508       H  0.69879927  0.76189792  0.30108613     0.17300
C1509       C  0.31317705  0.56976011  0.68821297    -0.28000
C1510       C  0.32915609  0.58718500  0.70910999     0.05600
C1511       C  0.32049438  0.59122054  0.73930095     0.25200
C1512       C  0.29612637  0.57823538  0.74786255    -0.12500
C1513       C  0.28007316  0.56120102  0.72630672    -0.26400
C1514       C  0.28901980  0.55688325  0.69663725     0.36100
C1515       C  0.35481895  0.60045143  0.69944161     0.05600
F1516       F  0.33562536  0.60746872  0.76067306    -0.20200
H1517       H  0.28972594  0.58193559  0.77075688     0.15500
F1518       F  0.27438243  0.54002099  0.67567290    -0.23900
H1519       H  0.31941845  0.56623953  0.66499156     0.17300
C1520       C  0.36717700  0.58829899  0.69292384     0.25300
C1521       C  0.39155075  0.60070964  0.68551797    -0.12400
C1522       C  0.40419258  0.62548977  0.68438569    -0.26500
C1523       C  0.39160885  0.63770402  0.68908489     0.36200
C1524       C  0.36713734  0.62524494  0.69663335    -0.28100
F1525       F  0.35600932  0.56436715  0.69592968    -0.20200
H1526       H  0.40088008  0.59086562  0.68261156     0.15500
F1527       F  0.40328636  0.66155196  0.68939819    -0.23900
H1528       H  0.35789524  0.63495252  0.70113810     0.17300
C1529       C  0.10815384  0.37808175  0.87429373    -0.28000
C1530       C  0.09796151  0.35756465  0.85624446     0.05600
C1531       C  0.10326684  0.35941751  0.82093354     0.25200
C1532       C  0.11769097  0.38150093  0.80390034    -0.12500
C1533       C  0.12677892  0.40211674  0.82161054    -0.26400
C1534       C  0.12231280  0.40015668  0.85720667     0.36100
C1535       C  0.08073139  0.33455571  0.87375257     0.05600
F1536       F  0.09412924  0.33990062  0.80274197    -0.20200
H1537       H  0.12073432  0.38257713  0.77649921     0.15500
F1538       F  0.13116925  0.41968952  0.87534760    -0.23900
H1539       H  0.10432728  0.37711624  0.90140603     0.17300
C1540       C  0.08642520  0.32567082  0.90442299     0.25300
C1541       C  0.07043236  0.30310836  0.91898565    -0.12400
C1542       C  0.04864991  0.28911115  0.90307470    -0.26500
C1543       C  0.04243694  0.29870392  0.87365160     0.36200
C1544       C  0.05828171  0.32115626  0.85930839    -0.28100
F1545       F  0.10808705  0.33806278  0.91888652    -0.20200
H1546       H  0.07585807  0.29588836  0.94107663     0.15500
F1547       F  0.02152045  0.28572632  0.85753749    -0.23900
H1548       H  0.05325271  0.32785663  0.83622079     0.17300
C1549       C  0.14885192  0.48394356  0.45578952    -0.28000
C1550       C  0.16251255  0.50588301  0.46983696     0.05600
C1551       C  0.17640317  0.52587076  0.44787090     0.25200
C1552       C  0.17712275  0.52378896  0.41267714    -0.12500
C1553       C  0.16371005  0.50184856  0.39858206    -0.26400
C1554       C  0.14929795  0.48191547  0.42039387     0.36100
C1555       C  0.16308521  0.50777266  0.50743685     0.05600
F1556       F  0.18904654  0.54748966  0.46042166    -0.20200
H1557       H  0.18800983  0.53947115  0.39629707     0.15500
F1558       F  0.13635403  0.46039017  0.40773484    -0.23900
H1559       H  0.13824525  0.46827608  0.47234611     0.17300
C1560       C  0.14200134  0.49843678  0.52688690     0.25300
C1561       C  0.14299023  0.50004870  0.56244209    -0.12400
C1562       C  0.16499825  0.51098474  0.57936518    -0.26500
C1563       C  0.18610180  0.52062259  0.55961589     0.36200
C1564       C  0.18504928  0.51890523  0.52411503    -0.28100
F1565       F  0.12045247  0.48801177  0.51150224    -0.20200
H1566       H  0.12640599  0.49250983  0.57674525     0.15500
F1567       F  0.20781551  0.53113239  0.57444305    -0.23900
H1568       H  0.20151298  0.52595271  0.50962056     0.17300
C1569       C  0.15487572  0.49057251  0.95760924    -0.28000
C1570       C  0.17097051  0.51259618  0.96977858     0.05600
C1571       C  0.18713021  0.53051432  0.94667707     0.25200
C1572       C  0.18699758  0.52649024  0.91205688    -0.12500
C1573       C  0.17063623  0.50463498  0.89964189    -0.26400
C1574       C  0.15457925  0.48658661  0.92281885     0.36100
C1575       C  0.17103790  0.51657957  0.00663623     0.05600
F1576       F  0.20255810  0.55216643  0.95733428    -0.20200
H1577       H  0.19938035  0.54079656  0.89473090     0.15500
F1578       F  0.13891725  0.46503478  0.91207743    -0.23900
H1579       H  0.14260648  0.47636972  0.97516972     0.17300
C1580       C  0.14976697  0.51062823  0.02389009     0.25300
C1581       C  0.14968227  0.51247885  0.05927950    -0.12400
C1582       C  0.17080086  0.52039450  0.07817779    -0.26500
C1583       C  0.19233963  0.52757151  0.06047566     0.36200
C1584       C  0.19234430  0.52555439  0.02508461    -0.28100
F1585       F  0.12900683  0.50281070  0.00655870    -0.20200
H1586       H  0.13289966  0.50714574  0.07203694     0.15500
F1587       F  0.21322674  0.53526615  0.07739708    -0.23900
H1588       H  0.20892683  0.53015497  0.01228362     0.17300
C1589       C  0.31926569  0.57306873  0.24710105    -0.28000
C1590       C  0.32814695  0.58490556  0.21471125     0.05600
C1591       C  0.31229156  0.58608612  0.19046433     0.25200
C1592       C  0.28817664  0.57577951  0.19846995    -0.12500
C1593       C  0.27896741  0.56360977  0.23068018    -0.26400
C1594       C  0.29489459  0.56253187  0.25514278     0.36100
C1595       C  0.35378542  0.59545161  0.20595678     0.05600
F1596       F  0.31993653  0.59645311  0.15846562    -0.20200
H1597       H  0.27662650  0.57714277  0.17885731     0.15500
F1598       F  0.28695827  0.55086812  0.28632582    -0.23900
H1599       H  0.33125737  0.57194127  0.26616163     0.17300
C1600       C  0.36715383  0.61912810  0.19311939     0.25300
C1601       C  0.39157232  0.62905040  0.18650067    -0.12400
C1602       C  0.40317430  0.61567560  0.19296262    -0.26500
C1603       C  0.38946922  0.59165589  0.20438597     0.36200
C1604       C  0.36509145  0.58176139  0.21075476    -0.28100
F1605       F  0.35694402  0.63309544  0.18901952    -0.20200
H1606       H  0.40166258  0.64763982  0.17850222     0.15500
F1607       F  0.39975374  0.57788298  0.21076965    -0.23900
H1608       H  0.35505962  0.56341350  0.22008839     0.17300
C1609       C  0.10968712  0.38080525  0.37192197    -0.28000
C1610       C  0.09880488  0.35976701  0.35517841     0.05600
C1611       C  0.10282606  0.36065262  0.31958489     0.25200
C1612       C  0.11659426  0.38236644  0.30097292    -0.12500
C1613       C  0.12621447  0.40353652  0.31745528    -0.26400
C1614       C  0.12308239  0.40245606  0.35330794     0.36100
C1615       C  0.08202737  0.33722280  0.37430165     0.05600
F1616       F  0.09293215  0.34052663  0.30271043    -0.20200
H1617       H  0.11860982  0.38272094  0.27343552     0.15500
F1618       F  0.13241853  0.42251608  0.37024590    -0.23900
H1619       H  0.10688413  0.38058099  0.39922519     0.17300
C1620       C  0.08893302  0.32852758  0.40401214     0.25300
C1621       C  0.07349303  0.30602105  0.41928377    -0.12400
C1622       C  0.05104022  0.29197742  0.40515824    -0.26500
C1623       C  0.04347420  0.30155505  0.37729585     0.36200
C1624       C  0.05882049  0.32392362  0.36211739    -0.28100
F1625       F  0.11119581  0.34094787  0.41664202    -0.20200
H1626       H  0.07985115  0.29881324  0.44026218     0.15500
F1627       F  0.02175503  0.28854100  0.36325222    -0.23900
H1628       H  0.05287459  0.33053865  0.33991295     0.17300
C1629       C  0.22479054  0.92067741  0.85691994    -0.28000
C1630       C  0.24305725  0.93186527  0.83205471     0.05600
C1631       C  0.25288175  0.95639467  0.82488277     0.25200
C1632       C  0.24477113  0.96926407  0.84234282    -0.12500
C1633       C  0.22657744  0.95817781  0.86744134    -0.26400
C1634       C  0.21667405  0.93357166  0.87450885     0.36100
C1635       C  0.25216251  0.91808298  0.81433706     0.05600
F1636       F  0.26999301  0.96796287  0.80030214    -0.20200
H1637       H  0.25272903  0.98804557  0.83586431     0.15500
F1638       F  0.19896304  0.92178625  0.89816636    -0.23900
H1639       H  0.21696721  0.90187686  0.86312463     0.17300
C1640       C  0.27674497  0.92624517  0.81190468     0.25300
C1641       C  0.28533566  0.91355269  0.79530458    -0.12400
C1642       C  0.26983996  0.89198598  0.78113747    -0.26500
C1643       C  0.24515638  0.88357217  0.78373489     0.36200
C1644       C  0.23647682  0.89651504  0.80021743    -0.28100
F1645       F  0.29262220  0.94608967  0.82685093    -0.20200
H1646       H  0.30442842  0.92062121  0.79407106     0.15500
F1647       F  0.22942229  0.86260994  0.77136817    -0.23900
H1648       H  0.21744202  0.88969452  0.80189878     0.17300
C1649       C  0.24100188  0.70004813  0.67685384    -0.28000
C1650       C  0.24401574  0.68370408  0.69874555     0.05600
C1651       C  0.25641775  0.69123291  0.72968715     0.25200
C1652       C  0.26680919  0.71500467  0.73741342    -0.12500
C1653       C  0.26491925  0.73164640  0.71446961    -0.26400
C1654       C  0.25117650  0.72365661  0.68458785     0.36100
C1655       C  0.23392768  0.65882354  0.68946384     0.05600
F1656       F  0.25843516  0.67554772  0.75243714    -0.20200
H1657       H  0.27714291  0.72055643  0.76059319     0.15500
F1658       F  0.24789590  0.73881681  0.66235626    -0.23900
H1659       H  0.23121192  0.69464173  0.65319811     0.17300
C1660       C  0.20965458  0.64533664  0.68182071     0.25300
C1661       C  0.19966376  0.62116582  0.67791226    -0.12400
C1662       C  0.21360607  0.60991827  0.68126595    -0.26500
C1663       C  0.23831049  0.62382388  0.68531357     0.36200
C1664       C  0.24831260  0.64805484  0.68964057    -0.28100
F1665       F  0.19516015  0.65504170  0.68102110    -0.20200
H1666       H  0.18057377  0.61083888  0.67485675     0.15500
F1667       F  0.25238621  0.61366755  0.68857909    -0.23900
H1668       H  0.26717421  0.65824958  0.69462347     0.17300
C1669       C  0.41654387  0.78638373  0.68890845    -0.28000
C1670       C  0.40326270  0.76177099  0.69369490     0.05600
C1671       C  0.37839541  0.75071860  0.68951712     0.25200
C1672       C  0.36700514  0.76429946  0.68293545    -0.12500
C1673       C  0.38023512  0.78906967  0.68037758    -0.26400
C1674       C  0.40527931  0.79990673  0.68210572     0.36100
C1675       C  0.41570314  0.74804508  0.70316235     0.05600
F1676       F  0.36499403  0.72690958  0.69398899    -0.20200
H1677       H  0.34775087  0.75549692  0.68226789     0.15500
F1678       F  0.41888358  0.82375532  0.67885844    -0.23900
H1679       H  0.43573728  0.79521049  0.69115955     0.17300
C1680       C  0.41429950  0.73093086  0.68199246     0.25300
C1681       C  0.42782257  0.71971113  0.68918114    -0.12400
C1682       C  0.44311368  0.72513083  0.71771403    -0.26500
C1683       C  0.44381090  0.74164349  0.73977332     0.36200
C1684       C  0.43036033  0.75310987  0.73230029    -0.28100
F1685       F  0.40090746  0.72601514  0.65317636    -0.20200
H1686       H  0.42680959  0.70716785  0.67152656     0.15500
F1687       F  0.45829432  0.74760392  0.76744336    -0.23900
H1688       H  0.43169093  0.76630605  0.74895967     0.17300
C1689       C  0.33174165  0.86704880  0.42889793    -0.28000
C1690       C  0.33173610  0.84804954  0.44828538     0.05600
C1691       C  0.33135704  0.82957813  0.43136016     0.25200
C1692       C  0.33074275  0.83002370  0.39560258    -0.12500
C1693       C  0.33053141  0.84890838  0.37593529    -0.26400
C1694       C  0.33114096  0.86755035  0.39302243     0.36100
C1695       C  0.33170598  0.84728429  0.48615390     0.05600
F1696       F  0.33196986  0.81127174  0.44943307    -0.20200
H1697       H  0.33056130  0.81553888  0.38331134     0.15500
F1698       F  0.33057560  0.88596919  0.37528612    -0.23900
H1699       H  0.33179685  0.88132728  0.44162429     0.17300
C1700       C  0.34922028  0.86608369  0.50368157     0.25300
C1701       C  0.34911932  0.86493770  0.53951371    -0.12400
C1702       C  0.33161049  0.84502928  0.55844719    -0.26500
C1703       C  0.31392090  0.82632953  0.54080313     0.36200
C1704       C  0.31405787  0.82750079  0.50496597    -0.28100
F1705       F  0.36672272  0.88529376  0.48618664    -0.20200
H1706       H  0.36290572  0.87958975  0.55248585     0.15500
F1707       F  0.29602800  0.80730742  0.55802849    -0.23900
H1708       H  0.30017357  0.81303996  0.49179801     0.17300
C1709       C  0.32076319  0.85514216  0.93109240    -0.28000
C1710       C  0.33272033  0.84397776  0.94716571     0.05600
C1711       C  0.33950259  0.83079601  0.92781995     0.25200
C1712       C  0.33445673  0.82893965  0.89288473    -0.12500
C1713       C  0.32284743  0.84040038  0.87670345    -0.26400
C1714       C  0.31588352  0.85344269  0.89604120     0.36100
C1715       C  0.33690403  0.84511799  0.98444139     0.05600
F1716       F  0.35150057  0.82020650  0.94253917    -0.20200
H1717       H  0.34025365  0.81910127  0.87821364     0.15500
F1718       F  0.30398022  0.86410132  0.88119948    -0.23900
H1719       H  0.31495255  0.86493237  0.94583317     0.17300
C1720       C  0.34824183  0.86683273  0.99956708     0.25300
C1721       C  0.35029327  0.86741222  0.03524602    -0.12400
C1722       C  0.34104932  0.84635030  0.05644545    -0.26500
C1723       C  0.33037165  0.82465887  0.04089242     0.36200
C1724       C  0.32838063  0.82415607  0.00529493    -0.28100
F1725       F  0.35723980  0.88743260  0.97984159    -0.20200
H1726       H  0.35877195  0.88440262  0.04626434     0.15500
F1727       F  0.32093061  0.80379987  0.05987792    -0.23900
H1728       H  0.31939501  0.80725717  0.99401366     0.17300
C1729       C  0.23977814  0.94086870  0.31883905    -0.28000
C1730       C  0.23684842  0.91960776  0.33491651     0.05600
C1731       C  0.22614618  0.91245329  0.36781834     0.25200
C1732       C  0.21872590  0.92637884  0.38409066    -0.12500
C1733       C  0.22183780  0.94780181  0.36808319    -0.26400
C1734       C  0.23237714  0.95477187  0.33500499     0.36100
C1735       C  0.24622305  0.90587132  0.31791022     0.05600
F1736       F  0.22243695  0.89176722  0.38401634    -0.20200
H1737       H  0.21050829  0.92034080  0.40932281     0.15500
F1738       F  0.23519703  0.97484164  0.31777597    -0.23900
H1739       H  0.24822847  0.94699719  0.29376315     0.17300
C1740       C  0.24186497  0.90103856  0.28295980     0.25300
C1741       C  0.25288404  0.89029487  0.26653425    -0.12400
C1742       C  0.26863075  0.88438693  0.28448342    -0.26500
C1743       C  0.27212065  0.88825574  0.31976377     0.36200
C1744       C  0.26105273  0.89885081  0.33615682    -0.28100
F1745       F  0.22710459  0.90688311  0.26458097    -0.20200
H1746       H  0.24979337  0.88740268  0.23945324     0.15500
F1747       F  0.28645092  0.88195678  0.33844906    -0.23900
H1748       H  0.26483319  0.90238360  0.36295781     0.17300
C1749       C  0.24944785  0.70559751  0.18502874    -0.28000
C1750       C  0.25107156  0.68925632  0.20877676     0.05600
C1751       C  0.26409210  0.69733709  0.23912228     0.25200
C1752       C  0.27608664  0.72147633  0.24469873    -0.12500
C1753       C  0.27543229  0.73786746  0.21996882    -0.26400
C1754       C  0.26140901  0.72960873  0.19051446     0.36100
C1755       C  0.23921396  0.66391854  0.20154431     0.05600
F1756       F  0.26530895  0.68190819  0.26326319    -0.20200
H1757       H  0.28672189  0.72743255  0.26754831     0.15500
F1758       F  0.25954606  0.74485624  0.16667213    -0.23900
H1759       H  0.23939690  0.69981591  0.16165782     0.17300
C1760       C  0.21494847  0.65186053  0.19320578     0.25300
C1761       C  0.20353231  0.62764625  0.18882646    -0.12400
C1762       C  0.21604837  0.61494862  0.19228464    -0.26500
C1763       C  0.24066261  0.62730760  0.19851479     0.36200
C1764       C  0.25206304  0.65155362  0.20320492    -0.28100
F1765       F  0.20191019  0.66316023  0.19145248    -0.20200
H1766       H  0.18452492  0.61851738  0.18446721     0.15500
F1767       F  0.25330293  0.61567401  0.20295687    -0.23900
H1768       H  0.27086628  0.66059515  0.20901907     0.17300
C1769       C  0.39141450  0.75873982  0.17686871    -0.28000
C1770       C  0.41456486  0.76791390  0.19014197     0.05600
C1771       C  0.42701702  0.79185772  0.19698569     0.25200
C1772       C  0.41601948  0.80580351  0.19294369    -0.12500
C1773       C  0.39225778  0.79634277  0.18201802    -0.26400
C1774       C  0.38029808  0.77274370  0.17281447     0.36100
C1775       C  0.42576201  0.75265101  0.19680895     0.05600
F1776       F  0.44987153  0.80181271  0.20786548    -0.20200
H1777       H  0.42600564  0.82397294  0.19959373     0.15500
F1778       F  0.35752678  0.76279112  0.16157646    -0.23900
H1779       H  0.38159615  0.74043356  0.17081647     0.17300
C1780       C  0.43619070  0.75180382  0.22871233     0.25300
C1781       C  0.44785463  0.73843033  0.23400453    -0.12400
C1782       C  0.44939591  0.72550346  0.20770765    -0.26500
C1783       C  0.43826825  0.72588832  0.17606173     0.36200
C1784       C  0.42658788  0.73921875  0.17090436    -0.28100
F1785       F  0.43491406  0.76375230  0.25497084    -0.20200
H1786       H  0.45589421  0.73841403  0.25871415     0.15500
F1787       F  0.43880709  0.71365395  0.14968586    -0.23900
H1788       H  0.41864716  0.73950909  0.14619115     0.17300
C1789       C  0.59107089  0.61218160  0.70383832    -0.28000
C1790       C  0.60617458  0.62314750  0.67495271     0.05600
C1791       C  0.61240961  0.64656338  0.66459873     0.25200
C1792       C  0.60294602  0.65827062  0.68182213    -0.12500
C1793       C  0.58655174  0.64682000  0.70914381    -0.26400
C1794       C  0.58123626  0.62384861  0.72075468     0.36100
C1795       C  0.61429634  0.60969039  0.65483771     0.05600
F1796       F  0.62586714  0.65742881  0.63591790    -0.20200
H1797       H  0.60670312  0.67569508  0.67168402     0.15500
F1798       F  0.56477839  0.61188492  0.74603193    -0.23900
H1799       H  0.58607875  0.59415916  0.71238932     0.17300
C1800       C  0.63853485  0.61865016  0.64672538     0.25300
C1801       C  0.64607141  0.60462287  0.63113582    -0.12400
C1802       C  0.62962368  0.58158484  0.62313793    -0.26500
C1803       C  0.60530400  0.57321627  0.62912048     0.36200
C1804       C  0.59773596  0.58716686  0.64475101    -0.28100
F1805       F  0.65515851  0.64014447  0.65646336    -0.20200
H1806       H  0.66495651  0.61104611  0.62786713     0.15500
F1807       F  0.58908906  0.55076939  0.62250515    -0.23900
H1808       H  0.57896410  0.57999745  0.65024022     0.17300
C1809       C  0.78101795  0.69097425  0.48843917    -0.28000
C1810       C  0.75804256  0.67498563  0.47791596     0.05600
C1811       C  0.74701569  0.68302367  0.45262338     0.25200
C1812       C  0.75822924  0.70688478  0.44018643    -0.12500
C1813       C  0.78062030  0.72296287  0.45254180    -0.26400
C1814       C  0.79227016  0.71445852  0.47567738     0.36100
C1815       C  0.74529267  0.65094952  0.49604707     0.05600
F1816       F  0.72522596  0.66799713  0.44049585    -0.20200
H1817       H  0.74893157  0.71298965  0.42233764     0.15500
F1818       F  0.81433003  0.72923535  0.48728819    -0.23900
H1819       H  0.78996147  0.68568400  0.50808556     0.17300
C1820       C  0.75722297  0.63808457  0.50561015     0.25300
C1821       C  0.74598442  0.61716058  0.52675365    -0.12400
C1822       C  0.72241210  0.60818259  0.53788942    -0.26500
C1823       C  0.71019403  0.62051259  0.52737539     0.36200
C1824       C  0.72162154  0.64174983  0.50714870    -0.28100
F1825       F  0.77967760  0.64554489  0.49419332    -0.20200
H1826       H  0.75552387  0.60765199  0.53374425     0.15500
F1827       F  0.68734700  0.61240348  0.53758990    -0.23900
H1828       H  0.71208993  0.65137464  0.50112272     0.17300
C1829       C  0.66102682  0.52096875  0.90355907    -0.28000
C1830       C  0.65816617  0.50000763  0.89105008     0.05600
C1831       C  0.65813133  0.48252447  0.91436131     0.25200
C1832       C  0.66093517  0.48604316  0.94937363    -0.12500
C1833       C  0.66374861  0.50697422  0.96194385    -0.26400
C1834       C  0.66368367  0.52442989  0.93869746     0.36100
C1835       C  0.65588486  0.49685466  0.85366204     0.05600
F1836       F  0.65501777  0.46187834  0.90342176    -0.20200
H1837       H  0.66069009  0.47219578  0.96678334     0.15500
F1838       F  0.66702055  0.54512549  0.94970789    -0.23900
H1839       H  0.66165637  0.53490886  0.88597913     0.17300
C1840       C  0.64027355  0.50205567  0.83391675     0.25300
C1841       C  0.63973156  0.50098612  0.79830222    -0.12400
C1842       C  0.65446396  0.49438346  0.78165673    -0.26500
C1843       C  0.66932109  0.48813687  0.80161631     0.36200
C1844       C  0.67009062  0.48954080  0.83723262    -0.28100
F1845       F  0.62554924  0.50821349  0.84905682    -0.20200
H1846       H  0.62791344  0.50560931  0.78364705     0.15500
F1847       F  0.68408604  0.48194622  0.78671849    -0.23900
H1848       H  0.68246535  0.48571146  0.85185567     0.17300
C1849       C  0.66934377  0.49032168  0.33794334    -0.28000
C1850       C  0.65474564  0.49767141  0.35320650     0.05600
C1851       C  0.63983733  0.50319697  0.33236245     0.25200
C1852       C  0.64045483  0.50252222  0.29681959    -0.12500
C1853       C  0.65563941  0.49594919  0.28128817    -0.26400
C1854       C  0.66966489  0.48921888  0.30234493     0.36100
C1855       C  0.65584565  0.50036831  0.39063016     0.05600
F1856       F  0.62455548  0.50911276  0.34636137    -0.20200
H1857       H  0.62903286  0.50729614  0.28139659     0.15500
F1858       F  0.68436991  0.48247570  0.28866164    -0.23900
H1859       H  0.68106305  0.48607305  0.35354894     0.17300
C1860       C  0.65469522  0.48239374  0.41390379     0.25300
C1861       C  0.65730844  0.48569742  0.44894508    -0.12400
C1862       C  0.66092917  0.50688822  0.46166672    -0.26500
C1863       C  0.66143019  0.52467420  0.43844836     0.36200
C1864       C  0.65901902  0.52141857  0.40321752    -0.28100
F1865       F  0.65078434  0.46150958  0.40281791    -0.20200
H1866       H  0.65636519  0.47148237  0.46622747     0.15500
F1867       F  0.66510240  0.54547332  0.44951469    -0.23900
H1868       H  0.66025680  0.53562488  0.38563225     0.17300
C1869       C  0.59777574  0.61579885  0.21230190    -0.28000
C1870       C  0.60705354  0.62207497  0.17851141     0.05600
C1871       C  0.60868615  0.64247654  0.16136376     0.25200
C1872       C  0.59990200  0.65542422  0.17678565    -0.12500
C1873       C  0.58880664  0.64819574  0.20946083    -0.26400
C1874       C  0.58889323  0.62883396  0.22784684     0.36100
C1875       C  0.61301556  0.60632012  0.16011904     0.05600
F1876       F  0.61708381  0.64890897  0.12858387    -0.20200
H1877       H  0.60065423  0.67051854  0.16207437     0.15500
F1878       F  0.57928307  0.62171390  0.25991771    -0.23900
H1879       H  0.59666649  0.60028204  0.22619471     0.17300
C1880       C  0.63534717  0.61474433  0.14408167     0.25300
C1881       C  0.64059925  0.59932841  0.12751880    -0.12400
C1882       C  0.62373569  0.57531750  0.12672922    -0.26500
C1883       C  0.60108848  0.56721927  0.14140722     0.36200
C1884       C  0.59583356  0.58256299  0.15785364    -0.28100
F1885       F  0.65258437  0.63748860  0.14635646    -0.20200
H1886       H  0.65845375  0.60575137  0.11771373     0.15500
F1887       F  0.58452967  0.54402942  0.14174645    -0.23900
H1888       H  0.57840898  0.57575824  0.16948647     0.17300
C1889       C  0.77616707  0.68528260  0.96703846    -0.28000
C1890       C  0.75224601  0.67485377  0.97749687     0.05600
C1891       C  0.73981328  0.68750853  0.97115829     0.25200
C1892       C  0.75151979  0.71053996  0.95605792    -0.12500
C1893       C  0.77571806  0.72128785  0.94735719    -0.26400
C1894       C  0.78787643  0.70836602  0.95227586     0.36100
C1895       C  0.74110300  0.65171652  0.99749287     0.05600
F1896       F  0.71700844  0.67844417  0.98224541    -0.20200
H1897       H  0.74218643  0.72061871  0.95360303     0.15500
F1898       F  0.81149026  0.71866411  0.94496689    -0.23900
H1899       H  0.78604987  0.67585445  0.97162039     0.17300
C1900       C  0.71883984  0.63336209  0.98849104     0.25300
C1901       C  0.70826610  0.61200425  0.00840805    -0.12400
C1902       C  0.71957816  0.60841906  0.03785085    -0.26500
C1903       C  0.74212587  0.62675229  0.04645394     0.36200
C1904       C  0.75269989  0.64811005  0.02640000    -0.28100
F1905       F  0.70741409  0.63595095  0.96018257    -0.20200
H1906       H  0.69106405  0.59826286  0.00066880     0.15500
F1907       F  0.75389865  0.62430135  0.07441962    -0.23900
H1908       H  0.76985132  0.66209238  0.03387140     0.17300
C1909       C  0.56536900  0.32041740  0.60785065    -0.28000
C1910       C  0.58104639  0.32734471  0.63592977     0.05600
C1911       C  0.58543656  0.31048936  0.65402277     0.25200
C1912       C  0.57417268  0.28728033  0.64459779    -0.12500
C1913       C  0.55792969  0.28003461  0.61728520    -0.26400
C1914       C  0.55382833  0.29693953  0.59857241     0.36100
C1915       C  0.59142183  0.35163728  0.64765430     0.05600
F1916       F  0.59939131  0.31601316  0.68227322    -0.20200
H1917       H  0.57751090  0.27463151  0.65975367     0.15500
F1918       F  0.53762737  0.29054687  0.57296893    -0.23900
H1919       H  0.56160648  0.33311806  0.59364525     0.17300
C1920       C  0.61597887  0.36544341  0.65377321     0.25300
C1921       C  0.62539920  0.38881354  0.66272948    -0.12400
C1922       C  0.61058627  0.39887474  0.66548286    -0.26500
C1923       C  0.58584787  0.38448271  0.66148206     0.36200
C1924       C  0.57648390  0.36121565  0.65263861    -0.28100
F1925       F  0.63110215  0.35695762  0.64874016    -0.20200
H1926       H  0.64450526  0.39958315  0.66471328     0.15500
F1927       F  0.57078226  0.39333539  0.66412252    -0.23900
H1928       H  0.55748545  0.35078125  0.64886395     0.17300
C1929       C  0.39329038  0.98987822  0.70015207    -0.28000
C1930       C  0.38270114  0.99610623  0.67221615     0.05600
C1931       C  0.35970761  0.97967624  0.66226105     0.25200
C1932       C  0.34851060  0.95690809  0.67803040    -0.12500
C1933       C  0.36005290  0.95005362  0.70366099    -0.26400
C1934       C  0.38213589  0.96694638  0.71569247     0.36100
C1935       C  0.39692045  0.01847569  0.65120141     0.05600
F1936       F  0.34910175  0.98471812  0.63494769    -0.20200
H1937       H  0.33162834  0.94393599  0.66808282     0.15500
F1938       F  0.39407100  0.96065232  0.73956185    -0.23900
H1939       H  0.41093898  0.00236779  0.70842727     0.17300
C1940       C  0.38807742  0.03403608  0.64181416     0.25300
C1941       C  0.40280744  0.05584506  0.62440661    -0.12400
C1942       C  0.42641293  0.06237856  0.61628219    -0.26500
C1943       C  0.43475290  0.04632987  0.62375570     0.36200
C1944       C  0.42005867  0.02450897  0.64083135    -0.28100
F1945       F  0.36600424  0.02908816  0.65187128    -0.20200
H1946       H  0.39647582  0.06846866  0.62001276     0.15500
F1947       F  0.45779588  0.05265477  0.61726675    -0.23900
H1948       H  0.42709800  0.01263514  0.64717865     0.17300
C1949       C  0.32111974  0.10044159  0.45796804    -0.28000
C1950       C  0.33548900  0.09017211  0.46636131     0.05600
C1951       C  0.32825109  0.06730415  0.45601776     0.25200
C1952       C  0.30607829  0.05435235  0.44040839    -0.12500
C1953       C  0.29109501  0.06417016  0.43424015    -0.26400
C1954       C  0.29926891  0.08768533  0.44179478     0.36100
C1955       C  0.35727293  0.10299742  0.48725335     0.05600
F1956       F  0.34166151  0.05674389  0.46349693    -0.20200
H1957       H  0.29982753  0.03606085  0.43570505     0.15500
F1958       F  0.28511096  0.09762066  0.43609589    -0.23900
H1959       H  0.32647387  0.11812192  0.46504434     0.17300
C1960       C  0.37934844  0.10653239  0.47605077     0.25300
C1961       C  0.39959692  0.11820095  0.49603140    -0.12400
C1962       C  0.39854231  0.12665763  0.52792930    -0.26500
C1963       C  0.37645170  0.12344957  0.53899272     0.36200
C1964       C  0.35608062  0.11181560  0.51870949    -0.28100
F1965       F  0.38147558  0.09904401  0.44541924    -0.20200
H1966       H  0.41627830  0.12054999  0.48632236     0.15500
F1967       F  0.37431178  0.13076276  0.56975676    -0.23900
H1968       H  0.33919066  0.10922505  0.52792689     0.17300
C1969       C  0.52368520  0.17979999  0.89572521    -0.28000
C1970       C  0.50296296  0.16419544  0.87906067     0.05600
C1971       C  0.48204138  0.14986634  0.89816008     0.25200
C1972       C  0.48188955  0.15140641  0.93361223    -0.12500
C1973       C  0.50252316  0.16742930  0.95031147    -0.26400
C1974       C  0.52352360  0.18152625  0.93105226     0.36100
C1975       C  0.50308527  0.16400224  0.84150039     0.05600
F1976       F  0.46158454  0.13518458  0.88233010    -0.20200
H1977       H  0.46545756  0.14052614  0.94787488     0.15500
F1978       F  0.54394989  0.19681865  0.94631677    -0.23900
H1979       H  0.53996674  0.19084451  0.88120383     0.17300
C1980       C  0.50935072  0.18487349  0.82122395     0.25300
C1981       C  0.50962712  0.18487442  0.78563660    -0.12400
C1982       C  0.50351779  0.16403221  0.76961829    -0.26500
C1983       C  0.49727997  0.14307394  0.79003311     0.36200
C1984       C  0.49705892  0.14313030  0.82579720    -0.28100
F1985       F  0.51456307  0.20512016  0.83588679    -0.20200
H1986       H  0.51415663  0.20117153  0.77060781     0.15500
F1987       F  0.49173266  0.12267927  0.77557047    -0.23900
H1988       H  0.49236849  0.12695776  0.84128922     0.17300
C1989       C  0.50226487  0.15660128  0.32459113    -0.28000
C1990       C  0.50912837  0.17759951  0.34046795     0.05600
C1991       C  0.51800153  0.19894543  0.32013218     0.25200
C1992       C  0.51866301  0.19897504  0.28439003    -0.12500
C1993       C  0.51043374  0.17775408  0.26836581    -0.26400
C1994       C  0.50291302  0.15659020  0.28892151     0.36100
C1995       C  0.50635294  0.17695479  0.37807300     0.05600
F1996       F  0.52486282  0.21960858  0.33465053    -0.20200
H1997       H  0.52463756  0.21550542  0.26922691     0.15500
F1998       F  0.49598955  0.13581681  0.27465430    -0.23900
H1999       H  0.49610974  0.14009151  0.33988690     0.17300
C2000       C  0.48468675  0.16082633  0.39453152     0.25300
C2001       C  0.48224708  0.16030299  0.43006189    -0.12400
C2002       C  0.50120522  0.17603389  0.44969248    -0.26500
C2003       C  0.52285065  0.19218421  0.43320876     0.36200
C2004       C  0.52536390  0.19252358  0.39773765    -0.28100
F2005       F  0.46569615  0.14595927  0.37618132    -0.20200
H2006       H  0.46538889  0.14780623  0.44219454     0.15500
F2007       F  0.54184907  0.20711667  0.45146603    -0.23900
H2008       H  0.54230991  0.20477876  0.38564369     0.17300
C2009       C  0.57558423  0.32260938  0.10210163    -0.28000
C2010       C  0.59544360  0.33005972  0.12382083     0.05600
C2011       C  0.60455502  0.31464541  0.13211246     0.25200
C2012       C  0.59331395  0.29197553  0.12015130    -0.12500
C2013       C  0.57257520  0.28401256  0.10033294    -0.26400
C2014       C  0.56414428  0.29975051  0.09059545     0.36100
C2015       C  0.60540254  0.35323869  0.13927134     0.05600
F2016       F  0.62301193  0.32069449  0.15411299    -0.20200
H2017       H  0.59982487  0.27994634  0.12835231     0.15500
F2018       F  0.54357984  0.29231279  0.07287687    -0.23900
H2019       H  0.56828116  0.33420282  0.09527962     0.17300
C2020       C  0.62987681  0.36972158  0.13727594     0.25300
C2021       C  0.63830462  0.39238912  0.14858801    -0.12400
C2022       C  0.62247615  0.39906332  0.16159623    -0.26500
C2023       C  0.59836962  0.38209024  0.16585532     0.36200
C2024       C  0.58997133  0.35940717  0.15489656    -0.28100
F2025       F  0.64531450  0.36466606  0.12175049    -0.20200
H2026       H  0.65684332  0.40538689  0.14414897     0.15500
F2027       F  0.58269475  0.38798858  0.17853458    -0.23900
H2028       H  0.57115204  0.34687887  0.15737114     0.17300
C2029       C  0.37920917  0.99382635  0.20253333    -0.28000
C2030       C  0.37449936  0.99952517  0.16877069     0.05600
C2031       C  0.35881949  0.98136833  0.14859420     0.25200
C2032       C  0.34973614  0.95793468  0.16085280    -0.12500
C2033       C  0.35610809  0.95213715  0.19341495    -0.26400
C2034       C  0.36994135  0.97025290  0.21494468     0.36100
C2035       C  0.38779597  0.02406864  0.15369881     0.05600
F2036       F  0.35309069  0.98627542  0.11647452    -0.20200
H2037       H  0.33865582  0.94421689  0.14405135     0.15500
F2038       F  0.37622949  0.96527511  0.24661357    -0.23900
H2039       H  0.39129310  0.00759109  0.21853436     0.17300
C2040       C  0.38971668  0.04281417  0.17157569     0.25300
C2041       C  0.40498004  0.06597580  0.15948751    -0.12400
C2042       C  0.41889259  0.07098799  0.12954940    -0.26500
C2043       C  0.41570882  0.05226246  0.11029602     0.36200
C2044       C  0.40031867  0.02897899  0.12243390    -0.28100
F2045       F  0.37737780  0.03874102  0.20127996    -0.20200
H2046       H  0.40667577  0.08006111  0.17454122     0.15500
F2047       F  0.42866450  0.05628403  0.08126209    -0.23900
H2048       H  0.39919143  0.01473711  0.10833505     0.17300
C2049       C  0.33399827  0.07953689  0.94195234    -0.28000
C2050       C  0.34116799  0.10048486  0.95878776     0.05600
C2051       C  0.32505409  0.10921511  0.95986778     0.25200
C2052       C  0.30219173  0.09667635  0.94655600    -0.12500
C2053       C  0.29441402  0.07490710  0.93227835    -0.26400
C2054       C  0.31072640  0.06665805  0.92924690     0.36100
C2055       C  0.36410561  0.11185603  0.97825595     0.05600
F2056       F  0.33044619  0.12871773  0.97670352    -0.20200
H2057       H  0.28977978  0.10315065  0.94984394     0.15500
F2058       F  0.30358968  0.04525568  0.91696668    -0.23900
H2059       H  0.34604396  0.07249715  0.94009115     0.17300
C2060       C  0.37135328  0.09805581  0.99937564     0.25300
C2061       C  0.39162275  0.10874084  0.01980117    -0.12400
C2062       C  0.40490705  0.13340779  0.02067629    -0.26500
C2063       C  0.39776854  0.14732048  0.99982865     0.36200
C2064       C  0.37789048  0.13664810  0.97842324    -0.28100
F2065       F  0.35830635  0.07416758  0.00160364    -0.20200
H2066       H  0.39669605  0.09759333  0.03567588     0.15500
F2067       F  0.41030476  0.17120290  0.99947443    -0.23900
H2068       H  0.37317918  0.14787018  0.96210272     0.17300
C2069       C  0.90336379  0.27240615  0.52208891    -0.28000
C2070       C  0.90339512  0.25223055  0.53710508     0.05600
C2071       C  0.89210194  0.24274083  0.56929629     0.25200
C2072       C  0.88179027  0.25384737  0.58656848    -0.12500
C2073       C  0.88279694  0.27478141  0.57225721    -0.26400
C2074       C  0.89329179  0.28360183  0.53929434     0.36100
C2075       C  0.91686230  0.24245991  0.52017824     0.05600
F2076       F  0.89118158  0.22280120  0.58409347    -0.20200
H2077       H  0.87365195  0.24644876  0.61158378     0.15500
F2078       F  0.89405492  0.30324189  0.52354407    -0.23900
H2079       H  0.91192925  0.28003198  0.49736339     0.17300
C2080       C  0.91241517  0.23592467  0.48600785     0.25300
C2081       C  0.92611786  0.22779533  0.47013100    -0.12400
C2082       C  0.94488326  0.22652106  0.48767284    -0.26500
C2083       C  0.94946904  0.23343143  0.52174130     0.36200
C2084       C  0.93547825  0.24108636  0.53774065    -0.28100
F2085       F  0.89462953  0.23711600  0.46812599    -0.20200
H2086       H  0.92215441  0.22266421  0.44394694     0.15500
F2087       F  0.96719679  0.23239144  0.54000428    -0.23900
H2088       H  0.93948158  0.24638526  0.56384862     0.17300
C2089       C  0.74618737  0.38580562  0.66737079    -0.28000
C2090       C  0.75652960  0.41007166  0.65781824     0.05600
C2091       C  0.78146813  0.42382025  0.65763919     0.25200
C2092       C  0.79563027  0.41323896  0.66465451    -0.12500
C2093       C  0.78536449  0.38870571  0.67196791    -0.26400
C2094       C  0.76038451  0.37515385  0.67426655     0.36100
C2095       C  0.74124823  0.42088757  0.64830867     0.05600
F2096       F  0.79222285  0.44749332  0.65031112    -0.20200
H2097       H  0.81478599  0.42421275  0.66294287     0.15500
F2098       F  0.74958237  0.35140398  0.68056747    -0.23900
H2099       H  0.72701339  0.37486352  0.66800340     0.17300
C2100       C  0.74534973  0.43551418  0.61792607     0.25300
C2101       C  0.73147278  0.44648136  0.61041065    -0.12400
C2102       C  0.71331806  0.44314853  0.63305785    -0.26500
C2103       C  0.70850721  0.42749934  0.66253757     0.36200
C2104       C  0.72231837  0.41659212  0.66992727    -0.28100
F2105       F  0.76275444  0.43918810  0.59545366    -0.20200
H2106       H  0.73548766  0.45822137  0.58748873     0.15500
F2107       F  0.69059441  0.42288563  0.68467799    -0.23900
H2108       H  0.71857567  0.40519201  0.69318872     0.17300
C2109       C  0.63930656  0.25595658  0.66558241    -0.28000
C2110       C  0.65302334  0.24565302  0.65665059     0.05600
C2111       C  0.64189409  0.22112019  0.65480520     0.25200
C2112       C  0.61729330  0.20748380  0.65897346    -0.12500
C2113       C  0.60313203  0.21800226  0.66449507    -0.26400
C2114       C  0.61454061  0.24228067  0.66953560     0.36100
C2115       C  0.67899832  0.26035224  0.65043921     0.05600
F2116       F  0.65475125  0.21036034  0.64828124    -0.20200
H2117       H  0.60914777  0.18874833  0.65568484     0.15500
F2118       F  0.60174900  0.25312282  0.67576287    -0.23900
H2119       H  0.64768140  0.27479480  0.66806228     0.17300
C2120       C  0.68994886  0.25911603  0.62041268     0.25300
C2121       C  0.71479615  0.27178169  0.61655225    -0.12400
C2122       C  0.72911364  0.28587270  0.64252917    -0.26500
C2123       C  0.71780293  0.28783519  0.67177516     0.36200
C2124       C  0.69312623  0.27523482  0.67549137    -0.28100
F2125       F  0.67662994  0.24568806  0.59485091    -0.20200
H2126       H  0.72282291  0.27013075  0.59360017     0.15500
F2127       F  0.73047416  0.30166291  0.69734362    -0.23900
H2128       H  0.68504593  0.27658473  0.69862567     0.17300
C2129       C  0.98723152  0.40398027  0.67219962    -0.28000
C2130       C  0.99318826  0.38921873  0.69320480     0.05600
C2131       C  0.97768234  0.36475558  0.69511200     0.25200
C2132       C  0.95620527  0.35541034  0.67720741    -0.12500
C2133       C  0.94988818  0.37025438  0.65710733    -0.26400
C2134       C  0.96571698  0.39462163  0.65441382     0.36100
C2135       C  0.01569441  0.39964304  0.71271055     0.05600
F2136       F  0.98250989  0.35013095  0.71616065    -0.20200
H2137       H  0.94365212  0.33674492  0.68108122     0.15500
F2138       F  0.95937938  0.40952679  0.63711001    -0.23900
H2139       H  0.99898984  0.42288127  0.67038755     0.17300
C2140       C  0.03359267  0.39410902  0.70569558     0.25300
C2141       C  0.05631872  0.40710532  0.71928254    -0.12400
C2142       C  0.06151826  0.42566167  0.74028689    -0.26500
C2143       C  0.04311273  0.42988786  0.74967572     0.36200
C2144       C  0.02036698  0.41702422  0.73576523    -0.28100
F2145       F  0.02976808  0.37775607  0.68304440    -0.20200
H2146       H  0.07043385  0.40396844  0.71113098     0.15500
F2147       F  0.04776099  0.44806326  0.76920273    -0.23900
H2148       H  0.00672447  0.42146978  0.74150720     0.17300
C2149       C  0.82569167  0.35031355  0.92670308    -0.28000
C2150       C  0.84225465  0.34818576  0.90693317     0.05600
C2151       C  0.86033803  0.34507714  0.92323767     0.25200
C2152       C  0.86145626  0.34365313  0.95907338    -0.12500
C2153       C  0.84454573  0.34529277  0.97901183    -0.26400
C2154       C  0.82682728  0.34902732  0.96240432     0.36100
C2155       C  0.84046993  0.34915858  0.86928465     0.05600
F2156       F  0.87641448  0.34268250  0.90451506    -0.20200
H2157       H  0.87517836  0.34070107  0.97121250     0.15500
F2158       F  0.81072207  0.35173402  0.98056607    -0.23900
H2159       H  0.81190406  0.35308798  0.91438668     0.17300
C2160       C  0.81991385  0.33261470  0.85310445     0.25300
C2161       C  0.81889930  0.33299466  0.81730489    -0.12400
C2162       C  0.83839637  0.34979982  0.79728384    -0.26500
C2163       C  0.85847331  0.36706326  0.81362179     0.36200
C2164       C  0.85947622  0.36662752  0.84937342    -0.28100
F2165       F  0.80135743  0.31540872  0.87192659    -0.20200
H2166       H  0.80335924  0.31942345  0.80529636     0.15500
F2167       F  0.87724512  0.38417130  0.79505245    -0.23900
H2168       H  0.87520806  0.37977963  0.86159871     0.17300
C2169       C  0.85700560  0.33189488  0.35303947    -0.28000
C2170       C  0.84312941  0.33889507  0.37083830     0.05600
C2171       C  0.82966958  0.34748885  0.35209619     0.25200
C2172       C  0.83010905  0.34887571  0.31612043    -0.12500
C2173       C  0.84413160  0.34195555  0.29827862    -0.26400
C2174       C  0.85754417  0.33334767  0.31722509     0.36100
C2175       C  0.84307421  0.33715370  0.40888428     0.05600
F2176       F  0.81660371  0.35509577  0.36850011    -0.20200
H2177       H  0.81972337  0.35566842  0.30221068     0.15500
F2178       F  0.87072883  0.32569017  0.30126653    -0.23900
H2179       H  0.86728615  0.32499276  0.36699875     0.17300
C2180       C  0.82168953  0.32483078  0.42771163     0.25300
C2181       C  0.82206668  0.32261507  0.46354580    -0.12400
C2182       C  0.84374444  0.33264749  0.48149235    -0.26500
C2183       C  0.86516240  0.34487757  0.46244647     0.36200
C2184       C  0.86473405  0.34699583  0.42655674    -0.28100
F2185       F  0.80044465  0.31438371  0.41148551    -0.20200
H2186       H  0.80522032  0.31296865  0.47721838     0.15500
F2187       F  0.88653808  0.35511541  0.47829230    -0.23900
H2188       H  0.88141625  0.35653210  0.41244483     0.17300
C2189       C  0.94217284  0.25053488  0.03388566    -0.28000
C2190       C  0.91851139  0.24397053  0.02552989     0.05600
C2191       C  0.90719576  0.22746263  0.00060916     0.25200
C2192       C  0.91948673  0.21792670  0.98434996    -0.12500
C2193       C  0.94335160  0.22469561  0.99244910    -0.26400
C2194       C  0.95448727  0.24115203  0.01771202     0.36100
C2195       C  0.90670717  0.25582879  0.04141134     0.05600
F2196       F  0.88459504  0.22124568  0.99098246    -0.20200
H2197       H  0.91033814  0.20540748  0.96508971     0.15500
F2198       F  0.97737594  0.24841199  0.02695288    -0.23900
H2199       H  0.95128009  0.26320118  0.05300403     0.17300
C2200       C  0.88433022  0.24309289  0.05796872     0.25300
C2201       C  0.87430685  0.25500967  0.07380389    -0.12400
C2202       C  0.88625579  0.27980951  0.07310586    -0.26500
C2203       C  0.90858008  0.29242092  0.05622008     0.36200
C2204       C  0.91858337  0.28053092  0.04081804    -0.28100
F2205       F  0.87245632  0.21916613  0.05968554    -0.20200
H2206       H  0.85712444  0.24482496  0.08645049     0.15500
F2207       F  0.92113283  0.31634152  0.05502236    -0.23900
H2208       H  0.93577789  0.29074675  0.02818610     0.17300
C2209       C  0.75828166  0.45401450  0.17065810    -0.28000
C2210       C  0.75480101  0.43479811  0.15251134     0.05600
C2211       C  0.73868790  0.42791161  0.12505438     0.25200
C2212       C  0.72611136  0.44002791  0.11628363    -0.12500
C2213       C  0.72925556  0.45895275  0.13502306    -0.26400
C2214       C  0.74565180  0.46595519  0.16215665     0.36100
C2215       C  0.76862253  0.42259133  0.16189664     0.05600
F2216       F  0.73530644  0.40965497  0.10656947    -0.20200
H2217       H  0.71336868  0.43415256  0.09562146     0.15500
F2218       F  0.74941907  0.48434310  0.18064693    -0.23900
H2219       H  0.77062604  0.45959856  0.19183146     0.17300
C2220       C  0.79356540  0.43545420  0.16289988     0.25300
C2221       C  0.80670075  0.42383880  0.16978617    -0.12400
C2222       C  0.79530211  0.39915633  0.17567245    -0.26500
C2223       C  0.77026290  0.38639374  0.17642247     0.36200
C2224       C  0.75707516  0.39808193  0.16950272    -0.28100
F2225       F  0.80530255  0.45910254  0.15510612    -0.20200
H2226       H  0.82594456  0.43408429  0.16870185     0.15500
F2227       F  0.75855869  0.36251858  0.18109508    -0.23900
H2228       H  0.73783295  0.38793190  0.16921710     0.17300
C2229       C  0.69695715  0.28464420  0.17880059    -0.28000
C2230       C  0.68272673  0.26912766  0.15429155     0.05600
C2231       C  0.69364555  0.26810690  0.12407677     0.25200
C2232       C  0.71841832  0.28124392  0.11962519    -0.12500
C2233       C  0.73289416  0.29571163  0.14514149    -0.26400
C2234       C  0.72170759  0.29775713  0.17444729     0.36100
C2235       C  0.65672306  0.25352906  0.16073655     0.05600
F2236       F  0.68033821  0.25429963  0.09884540    -0.20200
H2237       H  0.72631032  0.27952209  0.09658699     0.15500
F2238       F  0.73462874  0.31218358  0.19930788    -0.23900
H2239       H  0.68896859  0.28602057  0.20200432     0.17300
C2240       C  0.64621533  0.22916236  0.15710288     0.25300
C2241       C  0.62154270  0.21488758  0.15940644    -0.12400
C2242       C  0.60663203  0.22444130  0.16564139    -0.26500
C2243       C  0.61735016  0.24835558  0.17306571     0.36200
C2244       C  0.64216638  0.26276793  0.17032351    -0.28100
F2245       F  0.65980019  0.21916827  0.15063671    -0.20200
H2246       H  0.61405365  0.19642889  0.15463083     0.15500
F2247       F  0.60389214  0.25813479  0.18123857    -0.23900
H2248       H  0.64991835  0.28136811  0.17431882     0.17300
C2249       C  0.98698146  0.40140709  0.16294727    -0.28000
C2250       C  0.99335372  0.38773008  0.18560952     0.05600
C2251       C  0.97788948  0.36340535  0.19066545     0.25200
C2252       C  0.95564361  0.35321513  0.17488943    -0.12500
C2253       C  0.94876326  0.36705772  0.15330090    -0.26400
C2254       C  0.96491749  0.39115758  0.14664210     0.36100
C2255       C  0.01625229  0.39915431  0.20365269     0.05600
F2256       F  0.98386244  0.34978205  0.21205775    -0.20200
H2257       H  0.94335026  0.33465572  0.18063070     0.15500
F2258       F  0.95862983  0.40515167  0.12670288    -0.23900
H2259       H  0.99892901  0.42017468  0.15855042     0.17300
C2260       C  0.03560270  0.39725159  0.19207107     0.25300
C2261       C  0.05824859  0.41129620  0.20504773    -0.12400
C2262       C  0.06190063  0.42726346  0.22997910    -0.26500
C2263       C  0.04222001  0.42780148  0.24360619     0.36200
C2264       C  0.01950232  0.41391386  0.23021809    -0.28100
F2265       F  0.03290436  0.38320757  0.16633003    -0.20200
H2266       H  0.07327814  0.41083736  0.19401038     0.15500
F2267       F  0.04526431  0.44326672  0.26734861    -0.23900
H2268       H  0.00463451  0.41549007  0.23936672     0.17300
loop_ 
_geom_bond_atom_site_label_1 
_geom_bond_atom_site_label_2 
_geom_bond_distance 
_geom_bond_site_symmetry_2 
_ccdc_geom_bond_type 
Zr1           O2   2.442       .  S
Zr1           O3   2.458       .  S
Zr1           O4   2.438       .  S
Zr1           O7   2.418       .  S
Zr1           O9   2.380       .  S
Zr1          O10   2.377       .  S
Zr1          O11   2.416       .  S
Zr1          O12   2.413       .  S
O2           H58   0.991       .  S
O2           H66   0.990       .  S
O3           C23   1.289       .  A
O4           C25   1.283       .  A
O5          Zr15   2.461       .  S
O5           C24   1.290       .  A
O6          Zr14   2.425       .  S
O6           C25   1.281       .  A
O7           C24   1.282       .  A
O8          Zr16   2.397       .  S
O8           C23   1.279       .  A
O9          Zr14   2.387       .  S
O9          Zr16   2.381       .  S
O10         Zr15   2.369       .  S
O10         Zr16   2.384       .  S
O10          H45   0.964       .  S
O11         Zr14   2.404       .  S
O11         Zr31   2.416       .  S
O11          H48   0.966       .  S
O12         Zr15   2.385       .  S
O12         Zr31   2.409       .  S
Zr13         O38   2.438       .  S
Zr13         O32   2.412       .  S
Zr13         O40   2.439       .  S
Zr13         O28   2.460       .  S
Zr13         O19   2.398       .  S
Zr13         O20   2.407       .  S
Zr13         O21   2.378       .  S
Zr13         O22   2.391       .  S
Zr14         O33   2.443       .  S
Zr14         O26   2.437       .  S
Zr14         O27   2.410       .  S
Zr14         O20   2.400       .  S
Zr14         O21   2.394       .  S
Zr15         O17   2.434       .  S
Zr15         O39   2.439       .  S
Zr15         O41   2.405       .  S
Zr15         O19   2.404       .  S
Zr15         O22   2.393       .  S
Zr16         O42   2.435       .  S
Zr16         O43   2.436       .  S
Zr16         O18   2.437       .  S
Zr16         O19   2.383       .  S
Zr16         O20   2.391       .  S
O17          H54   0.990       .  S
O18          H49   0.990       .  S
O18          H63   0.990       .  S
O20          H46   0.966       .  S
O21         Zr31   2.362       .  S
O22         Zr31   2.373       .  S
O22          H47   0.966       .  S
C23        C2222   1.478       .  S
C24        C2233   1.495       .  S
C25        C2173   1.482       .  S
O26          H62   0.990       .  S
O27          C29   1.275       .  A
O28          C29   1.285       .  A
C29        C2253   1.474       .  S
O30         Zr31   2.438       .  S
O30          H59   0.991       .  S
Zr31         O34   2.436       .  S
Zr31         O35   2.440       .  S
Zr31         O36   2.458       .  S
O32          C37   1.281       .  A
O33          H50   0.990       .  S
O33          H65   0.990       .  S
O34          H51   0.990       .  S
O35          H55   0.990       .  S
O35          H64   0.990       .  S
O36          C37   1.289       .  A
C37        C2202   1.491       .  S
O38          H57   0.990       .  S
O38          H61   0.990       .  S
O39          H53   0.990       .  S
O39          H60   0.990       .  S
O40          C44   1.287       .  A
O41          C44   1.281       .  A
O42          H52   0.990       .  S
O43          H56   0.990       .  S
C44        C2153   1.475   1_554  S
Zr67         O68   2.441       .  S
Zr67         O69   2.461       .  S
Zr67         O70   2.432       .  S
Zr67         O73   2.398       .  S
Zr67         O75   2.374       .  S
Zr67         O76   2.375       .  S
Zr67         O77   2.408       .  S
Zr67         O78   2.413       .  S
O68         H124   0.990       .  S
O68         H132   0.991       .  S
O69          C89   1.290       .  A
O70          C91   1.284       .  A
O71         Zr81   2.459       .  S
O71          C90   1.290       .  A
O72         Zr80   2.410       .  S
O72          C91   1.280       .  A
O73          C90   1.279       .  A
O74         Zr82   2.411       .  S
O74          C89   1.281       .  A
O75         Zr80   2.381       .  S
O75         Zr82   2.377       .  S
O76         Zr81   2.369       .  S
O76         Zr82   2.380       .  S
O76         H111   0.965       .  S
O77         Zr80   2.382       .  S
O77         Zr97   2.418       .  S
O77         H114   0.966       .  S
O78         Zr81   2.386       .  S
O78         Zr97   2.417       .  S
Zr79        O104   2.442       .  S
Zr79         O98   2.419       .  S
Zr79        O106   2.449       .  S
Zr79         O94   2.477       .  S
Zr79         O85   2.405       .  S
Zr79         O86   2.400       .  S
Zr79         O87   2.372       .  S
Zr79         O88   2.394       .  S
Zr80         O99   2.440       .  S
Zr80         O92   2.435       .  S
Zr80         O93   2.379       .  S
Zr80         O86   2.391       .  S
Zr80         O87   2.386       .  S
Zr81         O83   2.435       .  S
Zr81        O105   2.438       .  S
Zr81        O107   2.413       .  S
Zr81         O85   2.406       .  S
Zr81         O88   2.388       .  S
Zr82        O108   2.434       .  S
Zr82        O109   2.435       .  S
Zr82         O84   2.437       .  S
Zr82         O85   2.389       .  S
Zr82         O86   2.386       .  S
O83         H120   0.990       .  S
O84         H115   0.990       .  S
O84         H129   0.990       .  S
O86         H112   0.966       .  S
O87         Zr97   2.361       .  S
O88         Zr97   2.372       .  S
O88         H113   0.966       .  S
C89        C2093   1.488       .  S
C90        C2122   1.490       .  S
C91        C2162   1.472       .  S
O92         H128   0.990       .  S
O93          C95   1.275       .  A
O94          C95   1.293       .  A
C95        C2133   1.466       .  S
O96         Zr97   2.439       .  S
O96         H125   0.991       .  S
Zr97        O100   2.440       .  S
Zr97        O101   2.437       .  S
Zr97        O102   2.472       .  S
O98         C103   1.283       .  A
O99         H116   0.990       .  S
O99         H131   0.990       .  S
O100        H117   0.990       .  S
O101        H121   0.990       .  S
O101        H130   0.990       .  S
O102        C103   1.292       .  A
C103       C2073   1.496       .  S
O104        H123   0.990       .  S
O104        H127   0.990       .  S
O105        H119   0.990       .  S
O105        H126   0.990       .  S
O106        C110   1.289       .  A
O107        C110   1.282       .  A
O108        H118   0.989       .  S
O109        H122   0.990       .  S
C110       C2182   1.488       .  S
Zr133       O134   2.438       .  S
Zr133       O135   2.459       .  S
Zr133       O136   2.430       .  S
Zr133       O139   2.383       .  S
Zr133       O141   2.365       .  S
Zr133       O142   2.375       .  S
Zr133       O143   2.410       .  S
Zr133       O144   2.419       .  S
O134        H190   0.990       .  S
O134        H198   0.990       .  S
O135        C155   1.289       .  A
O136        C157   1.284       .  A
O137       Zr147   2.485       .  S
O137        C156   1.294       .  A
O138       Zr146   2.408       .  S
O138        C157   1.280       .  A
O139        C156   1.276       .  A
O140       Zr148   2.419       .  S
O140        C155   1.283       .  A
O141       Zr146   2.378       .  S
O141       Zr148   2.373       .  S
O142       Zr147   2.369       .  S
O142       Zr148   2.376       .  S
O142        H177   0.965       .  S
O143       Zr146   2.384       .  S
O143       Zr163   2.425       .  S
O143        H180   0.966       .  S
O144       Zr147   2.384       .  S
O144       Zr163   2.415       .  S
Zr145       O170   2.438       .  S
Zr145       O164   2.411       .  S
Zr145       O172   2.416       .  S
Zr145       O160   2.456       .  S
Zr145       O151   2.404       .  S
Zr145       O152   2.396       .  S
Zr145       O153   2.369       .  S
Zr145       O154   2.391       .  S
Zr146       O165   2.436       .  S
Zr146       O158   2.433       .  S
Zr146       O159   2.390       .  S
Zr146       O152   2.392       .  S
Zr146       O153   2.382       .  S
Zr147       O149   2.434       .  S
Zr147       O171   2.438       .  S
Zr147       O173   2.430   1_554  S
Zr147       O151   2.410       .  S
Zr147       O154   2.392       .  S
Zr148       O174   2.435       .  S
Zr148       O175   2.436       .  S
Zr148       O150   2.437       .  S
Zr148       O151   2.388       .  S
Zr148       O152   2.398       .  S
O149        H186   0.990       .  S
O150        H181   0.990       .  S
O150        H195   0.990       .  S
O152        H178   0.967       .  S
O153       Zr163   2.361       .  S
O154       Zr163   2.361       .  S
O154        H179   0.966       .  S
C155       C2242   1.492       .  S
C156       C2013   1.476       .  S
C157       C1993   1.477       .  S
O158        H194   0.990       .  S
O159        C161   1.278       .  A
O160        C161   1.289       .  A
C161       C2042   1.479       .  S
O162       Zr163   2.439       .  S
O162        H191   0.990       .  S
Zr163       O166   2.436       .  S
Zr163       O167   2.440       .  S
Zr163       O168   2.477       .  S
O164        C169   1.281       .  A
O165        H182   0.990       .  S
O165        H197   0.990       .  S
O166        H183   0.990       .  S
O167        H187   0.990       .  S
O167        H196   0.990       .  S
O168        C169   1.292       .  A
C169       C2062   1.489       .  S
O170        H189   0.990       .  S
O170        H193   0.990       .  S
O171        H185   0.990       .  S
O171        H192   0.990       .  S
O172        C176   1.284   1_554  A
O173        C176   1.286       .  A
O174        H184   0.990       .  S
O175        H188   0.990       .  S
C176       C1973   1.471       .  S
Zr199       O200   2.442       .  S
Zr199       O201   2.465       .  S
Zr199       O202   2.414       .  S
Zr199       O205   2.384       .  S
Zr199       O207   2.367       .  S
Zr199       O208   2.371       .  S
Zr199       O209   2.408       .  S
Zr199       O210   2.413       .  S
O200        H256   0.991       .  S
O200        H264   0.990       .  S
O201        C221   1.289       .  A
O202        C223   1.280       .  A
O203       Zr213   2.473       .  S
O203        C222   1.291       .  A
O204       Zr212   2.415       .  S
O204        C223   1.280       .  A
O205        C222   1.276       .  A
O206       Zr214   2.390       .  S
O206        C221   1.277       .  A
O207       Zr212   2.383       .  S
O207       Zr214   2.377       .  S
O208       Zr213   2.381       .  S
O208       Zr214   2.382       .  S
O208        H243   0.966       .  S
O209       Zr212   2.388       .  S
O209       Zr229   2.420       .  S
O209        H246   0.966       .  S
O210       Zr213   2.384       .  S
O210       Zr229   2.417       .  S
Zr211       O236   2.441       .  S
Zr211       O230   2.391       .  S
Zr211       O238   2.426       .  S
Zr211       O226   2.452       .  S
Zr211       O217   2.394       .  S
Zr211       O218   2.390       .  S
Zr211       O219   2.371       .  S
Zr211       O220   2.391       .  S
Zr212       O231   2.438       .  S
Zr212       O224   2.436       .  S
Zr212       O225   2.389       .  S
Zr212       O218   2.393       .  S
Zr212       O219   2.386       .  S
Zr213       O215   2.435       .  S
Zr213       O237   2.438       .  S
Zr213       O239   2.426       .  S
Zr213       O217   2.406       .  S
Zr213       O220   2.395       .  S
Zr214       O240   2.435       .  S
Zr214       O241   2.435       .  S
Zr214       O216   2.436       .  S
Zr214       O217   2.381       .  S
Zr214       O218   2.385       .  S
O215        H252   0.990       .  S
O216        H247   0.990       .  S
O216        H261   0.990       .  S
O218        H244   0.966       .  S
O219       Zr229   2.361       .  S
O220       Zr229   2.372       .  S
O220        H245   0.966       .  S
C221       C2113   1.485       .  S
C222       C1913   1.484       .  S
C223       C1982   1.472       .  S
O224        H260   0.990       .  S
O225        C227   1.277       .  A
O226        C227   1.287       .  A
C227       C1942   1.459       .  S
O228       Zr229   2.440       .  S
O228        H257   0.990       .  S
Zr229       O232   2.437       .  S
Zr229       O233   2.438       .  S
Zr229       O234   2.487       .  S
O230        C235   1.278       .  A
O231        H248   0.990       .  S
O231        H263   0.990       .  S
O232        H249   0.990       .  S
O233        H253   0.990       .  S
O233        H262   0.990       .  S
O234        C235   1.294       .  A
C235       C1962   1.496       .  S
O236        H255   0.990       .  S
O236        H259   0.990       .  S
O237        H251   0.990       .  S
O237        H258   0.990       .  S
O238        C242   1.285       .  A
O239        C242   1.285       .  A
O240        H250   0.990       .  S
O241        H254   0.990       .  S
C242       C2002   1.474       .  S
Zr265       O266   2.442       .  S
Zr265       O267   2.462       .  S
Zr265       O268   2.451       .  S
Zr265       O271   2.398       .  S
Zr265       O273   2.375       .  S
Zr265       O274   2.383       .  S
Zr265       O275   2.410       .  S
Zr265       O276   2.411       .  S
O266        H322   0.990       .  S
O266        H330   0.990       .  S
O267        C287   1.288       .  A
O268        C289   1.285       .  A
O269       Zr279   2.459       .  S
O269        C288   1.288       .  A
O270       Zr278   2.391       .  S
O270        C289   1.277       .  A
O271        C288   1.278       .  A
O272       Zr280   2.409       .  S
O272        C287   1.280       .  A
O273       Zr278   2.388       .  S
O273       Zr280   2.378       .  S
O274       Zr279   2.365       .  S
O274       Zr280   2.384       .  S
O274        H309   0.964       .  S
O275       Zr278   2.392       .  S
O275       Zr295   2.417       .  S
O275        H312   0.966       .  S
O276       Zr279   2.382       .  S
O276       Zr295   2.401       .  S
Zr277       O302   2.442       .  S
Zr277       O296   2.407       .  S
Zr277       O304   2.449       .  S
Zr277       O292   2.491       .  S
Zr277       O283   2.403       .  S
Zr277       O284   2.398       .  S
Zr277       O285   2.372       .  S
Zr277       O286   2.399       .  S
Zr278       O297   2.437       .  S
Zr278       O290   2.435       .  S
Zr278       O291   2.381       .  S
Zr278       O284   2.389       .  S
Zr278       O285   2.383       .  S
Zr279       O281   2.435       .  S
Zr279       O303   2.440       .  S
Zr279       O305   2.407       .  S
Zr279       O283   2.402       .  S
Zr279       O286   2.387       .  S
Zr280       O306   2.435       .  S
Zr280       O307   2.435       .  S
Zr280       O282   2.436       .  S
Zr280       O283   2.384       .  S
Zr280       O284   2.394       .  S
O281        H318   0.990       .  S
O282        H313   0.990       .  S
O282        H327   0.990       .  S
O284        H310   0.966       .  S
O285       Zr295   2.368       .  S
O286       Zr295   2.372       .  S
O286        H311   0.965       .  S
C287       C2022   1.474       .  S
C288       C2213   1.477       .  S
C289       C1853   1.479       .  S
O290        H326   0.990       .  S
O291        C293   1.275       .  A
O292        C293   1.295       .  A
C293       C1882   1.477       .  S
O294       Zr295   2.439       .  S
O294        H323   0.990       .  S
Zr295       O298   2.437       .  S
Zr295       O299   2.440       .  S
Zr295       O300   2.454       .  S
O296        C301   1.281       .  A
O297        H314   0.990       .  S
O297        H329   0.990       .  S
O298        H315   0.990       .  S
O299        H319   0.990       .  S
O299        H328   0.990       .  S
O300        C301   1.288       .  A
C301       C1902   1.488       .  S
O302        H321   0.990       .  S
O302        H325   0.990       .  S
O303        H317   0.990       .  S
O303        H324   0.990       .  S
O304        C308   1.289   1_554  A
O305        C308   1.282   1_554  A
O306        H316   0.990       .  S
O307        H320   0.990       .  S
C308       C1833   1.477       .  S
Zr331       O332   2.441       .  S
Zr331       O333   2.473       .  S
Zr331       O334   2.435       .  S
Zr331       O337   2.396       .  S
Zr331       O339   2.376       .  S
Zr331       O340   2.376       .  S
Zr331       O341   2.416       .  S
Zr331       O342   2.415       .  S
O332        H388   0.990       .  S
O332        H396   0.990       .  S
O333        C353   1.292       .  A
O334        C355   1.284       .  A
O335       Zr345   2.474       .  S
O335        C354   1.292       .  A
O336       Zr344   2.417       .  S
O336        C355   1.282       .  A
O337        C354   1.278       .  A
O338       Zr346   2.397       .  S
O338        C353   1.278       .  A
O339       Zr344   2.390       .  S
O339       Zr346   2.378       .  S
O340       Zr345   2.365       .  S
O340       Zr346   2.385       .  S
O340        H375   0.965       .  S
O341       Zr344   2.389       .  S
O341       Zr361   2.418       .  S
O341        H378   0.966       .  S
O342       Zr345   2.378       .  S
O342       Zr361   2.410       .  S
Zr343       O368   2.442       .  S
Zr343       O362   2.406       .  S
Zr343       O370   2.447       .  S
Zr343       O358   2.469       .  S
Zr343       O349   2.402       .  S
Zr343       O350   2.397       .  S
Zr343       O351   2.379       .  S
Zr343       O352   2.397       .  S
Zr344       O363   2.438       .  S
Zr344       O356   2.435       .  S
Zr344       O357   2.400       .  S
Zr344       O350   2.391       .  S
Zr344       O351   2.387       .  S
Zr345       O347   2.437       .  S
Zr345       O369   2.437       .  S
Zr345       O371   2.412       .  S
Zr345       O349   2.411       .  S
Zr345       O352   2.389       .  S
Zr346       O372   2.433       .  S
Zr346       O373   2.437       .  S
Zr346       O348   2.437       .  S
Zr346       O349   2.387       .  S
Zr346       O350   2.386       .  S
O347        H384   0.990       .  S
O348        H379   0.990       .  S
O348        H393   0.990       .  S
O350        H376   0.966       .  S
O351       Zr361   2.367       .  S
O352       Zr361   2.369       .  S
O352        H377   0.966       .  S
C353       C1922   1.484       .  S
C354       C2102   1.491       .  S
C355       C1842   1.480       .  S
O356        H392   0.990       .  S
O357        C359   1.278       .  A
O358        C359   1.291       .  A
C359       C1802   1.471       .  S
O360       Zr361   2.439       .  S
O360        H389   0.990       .  S
Zr361       O364   2.438       .  S
Zr361       O365   2.439       .  S
Zr361       O366   2.467       .  S
O362        C367   1.280       .  A
O363        H380   0.990       .  S
O363        H395   0.990       .  S
O364        H381   0.990       .  S
O365        H385   0.990       .  S
O365        H394   0.990       .  S
O366        C367   1.291       .  A
C367       C1822   1.483       .  S
O368        H387   0.990       .  S
O368        H391   0.990       .  S
O369        H383   0.989       .  S
O369        H390   0.990       .  S
O370        C374   1.288       .  A
O371        C374   1.283       .  A
O372        H382   0.989       .  S
O373        H386   0.989       .  S
C374       C1862   1.480       .  S
Zr397       O398   2.439       .  S
Zr397       O399   2.464       .  S
Zr397       O400   2.438       .  S
Zr397       O403   2.403       .  S
Zr397       O405   2.372       .  S
Zr397       O406   2.381       .  S
Zr397       O407   2.410       .  S
Zr397       O408   2.405       .  S
O398        H454   0.990       .  S
O398        H462   0.991       .  S
O399        C419   1.289       .  A
O400        C421   1.284       .  A
O401       Zr411   2.455       .  S
O401        C420   1.288       .  A
O402       Zr410   2.408       .  S
O402        C421   1.280       .  A
O403        C420   1.279       .  A
O404       Zr412   2.418       .  S
O404        C419   1.283       .  A
O405       Zr410   2.388       .  S
O405       Zr412   2.379       .  S
O406       Zr411   2.380       .  S
O406       Zr412   2.387       .  S
O406        H441   0.965       .  S
O407       Zr410   2.387       .  S
O407       Zr427   2.416       .  S
O407        H444   0.966       .  S
O408       Zr411   2.380       .  S
O408       Zr427   2.399       .  S
Zr409       O434   2.442       .  S
Zr409       O428   2.417       .  S
Zr409       O436   2.436       .  S
Zr409       O424   2.455       .  S
Zr409       O415   2.403       .  S
Zr409       O416   2.406       .  S
Zr409       O417   2.375       .  S
Zr409       O418   2.390       .  S
Zr410       O429   2.438       .  S
Zr410       O422   2.436       .  S
Zr410       O423   2.394       .  S
Zr410       O416   2.393       .  S
Zr410       O417   2.386       .  S
Zr411       O413   2.436       .  S
Zr411       O435   2.437       .  S
Zr411       O437   2.421       .  S
Zr411       O415   2.404       .  S
Zr411       O418   2.390       .  S
Zr412       O438   2.436       .  S
Zr412       O439   2.437       .  S
Zr412       O414   2.438       .  S
Zr412       O415   2.396       .  S
Zr412       O416   2.400       .  S
O413        H450   0.990       .  S
O414        H445   0.990       .  S
O414        H459   0.990       .  S
O416        H442   0.966       .  S
O417       Zr427   2.361       .  S
O418       Zr427   2.373       .  S
O418        H443   0.966       .  S
C419       C1773   1.495       .  S
C420       C1753   1.478       .  S
C421       C1722   1.483       .  S
O422        H458   0.990       .  S
O423        C425   1.278       .  A
O424        C425   1.288       .  A
C425       C2033   1.474       .  S
O426       Zr427   2.438       .  S
O426        H455   0.990       .  S
Zr427       O430   2.436       .  S
Zr427       O431   2.437       .  S
Zr427       O432   2.466       .  S
O428        C433   1.282       .  A
O429        H446   0.990       .  S
O429        H461   0.990       .  S
O430        H447   0.990       .  S
O431        H451   0.990       .  S
O431        H460   0.990       .  S
O432        C433   1.290       .  A
C433       C1742   1.488       .  S
O434        H453   0.990       .  S
O434        H457   0.990       .  S
O435        H449   0.990       .  S
O435        H456   0.990       .  S
O436        C440   1.286       .  A
O437        C440   1.284       .  A
O438        H448   0.990       .  S
O439        H452   0.990       .  S
C440       C1693   1.482       .  S
Zr463       O464   2.444       .  S
Zr463       O465   2.482       .  S
Zr463       O466   2.442       .  S
Zr463       O469   2.405       .  S
Zr463       O471   2.374       .  S
Zr463       O472   2.378       .  S
Zr463       O473   2.419       .  S
Zr463       O474   2.416       .  S
O464        H520   0.990       .  S
O464        H528   0.990       .  S
O465        C485   1.292       .  A
O466        C487   1.283       .  A
O467       Zr477   2.476       .  S
O467        C486   1.292       .  A
O468       Zr476   2.401       .  S
O468        C487   1.277       .  A
O469        C486   1.279       .  A
O470       Zr478   2.389       .  S
O470        C485   1.276       .  A
O471       Zr476   2.394       .  S
O471       Zr478   2.381       .  S
O472       Zr477   2.379       .  S
O472       Zr478   2.388       .  S
O472        H507   0.966       .  S
O473       Zr476   2.395       .  S
O473       Zr493   2.422       .  S
O473        H510   0.966       .  S
O474       Zr477   2.385       .  S
O474       Zr493   2.416       .  S
Zr475       O500   2.442       .  S
Zr475       O494   2.404       .  S
Zr475       O502   2.421       .  S
Zr475       O490   2.456       .  S
Zr475       O481   2.401       .  S
Zr475       O482   2.392       .  S
Zr475       O483   2.367       .  S
Zr475       O484   2.392       .  S
Zr476       O495   2.439       .  S
Zr476       O488   2.435       .  S
Zr476       O489   2.396       .  S
Zr476       O482   2.389       .  S
Zr476       O483   2.382       .  S
Zr477       O479   2.434       .  S
Zr477       O501   2.437       .  S
Zr477       O503   2.426       .  S
Zr477       O481   2.406       .  S
Zr477       O484   2.398       .  S
Zr478       O504   2.436       .  S
Zr478       O505   2.436       .  S
Zr478       O480   2.437       .  S
Zr478       O481   2.383       .  S
Zr478       O482   2.385       .  S
O479        H516   0.990       .  S
O480        H511   0.990       .  S
O480        H525   0.990       .  S
O482        H508   0.966       .  S
O483       Zr493   2.362       .  S
O484       Zr493   2.368       .  S
O484        H509   0.966       .  S
C485       C1673   1.487       .  S
C486       C1653   1.491       .  S
C487       C1702   1.475       .  S
O488        H524   0.990       .  S
O489        C491   1.279       .  A
O490        C491   1.288       .  A
C491       C1933   1.468       .  S
O492       Zr493   2.439       .  S
O492        H521   0.991       .  S
Zr493       O496   2.437       .  S
Zr493       O497   2.440       .  S
Zr493       O498   2.480       .  S
O494        C499   1.280       .  A
O495        H512   0.990       .  S
O495        H527   0.990       .  S
O496        H513   0.990       .  S
O497        H517   0.990       .  S
O497        H526   0.990       .  S
O498        C499   1.292       .  A
C499       C1642   1.498       .  S
O500        H519   0.990       .  S
O500        H523   0.990       .  S
O501        H515   0.990       .  S
O501        H522   0.990       .  S
O502        C506   1.284       .  A
O503        C506   1.285       .  A
O504        H514   0.990       .  S
O505        H518   0.990       .  S
C506       C1713   1.466       .  S
Zr529       O530   2.441       .  S
Zr529       O531   2.471       .  S
Zr529       O532   2.429       .  S
Zr529       O535   2.381       .  S
Zr529       O537   2.370       .  S
Zr529       O538   2.375       .  S
Zr529       O539   2.415       .  S
Zr529       O540   2.412       .  S
O530        H586   0.990       .  S
O530        H594   0.990       .  S
O531        C551   1.290       .  A
O532        C553   1.281       .  A
O533       Zr543   2.476       .  S
O533        C552   1.292       .  A
O534       Zr542   2.421       .  S
O534        C553   1.282       .  A
O535        C552   1.275       .  A
O536       Zr544   2.402       .  S
O536        C551   1.278       .  A
O537       Zr542   2.388       .  S
O537       Zr544   2.379       .  S
O538       Zr543   2.381       .  S
O538       Zr544   2.388       .  S
O538        H573   0.965       .  S
O539       Zr542   2.390       .  S
O539       Zr559   2.421       .  S
O539        H576   0.966       .  S
O540       Zr543   2.381       .  S
O540       Zr559   2.409       .  S
Zr541       O566   2.440       .  S
Zr541       O560   2.404       .  S
Zr541       O568   2.436       .  S
Zr541       O556   2.459       .  S
Zr541       O547   2.396       .  S
Zr541       O548   2.398       .  S
Zr541       O549   2.375       .  S
Zr541       O550   2.394       .  S
Zr542       O561   2.440       .  S
Zr542       O554   2.434       .  S
Zr542       O555   2.400       .  S
Zr542       O548   2.390       .  S
Zr542       O549   2.388       .  S
Zr543       O545   2.435       .  S
Zr543       O567   2.439       .  S
Zr543       O569   2.424       .  S
Zr543       O547   2.404       .  S
Zr543       O550   2.395       .  S
Zr544       O570   2.434       .  S
Zr544       O571   2.435       .  S
Zr544       O546   2.437       .  S
Zr544       O547   2.386       .  S
Zr544       O548   2.389       .  S
O545        H582   0.990       .  S
O546        H577   0.990       .  S
O546        H591   0.990       .  S
O548        H574   0.966       .  S
O549       Zr559   2.358       .  S
O550       Zr559   2.372       .  S
O550        H575   0.966       .  S
C551       C1762   1.483       .  S
C552       C1593   1.491       .  S
C553       C1582   1.482       .  S
O554        H590   0.990       .  S
O555        C557   1.280       .  A
O556        C557   1.289       .  A
C557       C2262   1.471       .  S
O558       Zr559   2.435       .  S
O558        H587   0.990       .  S
Zr559       O562   2.436       .  S
Zr559       O563   2.438       .  S
Zr559       O564   2.478       .  S
O560        C565   1.280       .  A
O561        H578   0.990       .  S
O561        H593   0.990       .  S
O562        H579   0.990       .  S
O563        H583   0.990       .  S
O563        H592   0.990       .  S
O564        C565   1.292       .  A
C565       C1613   1.486       .  S
O566        H585   0.990       .  S
O566        H589   0.990       .  S
O567        H581   0.990       .  S
O567        H588   0.990       .  S
O568        C572   1.286       .  A
O569        C572   1.285       .  A
O570        H580   0.990       .  S
O571        H584   0.990       .  S
C572       C1553   1.475       .  S
Zr595       O596   2.440       .  S
Zr595       O597   2.473       .  S
Zr595       O598   2.439       .  S
Zr595       O601   2.404       .  S
Zr595       O603   2.372       .  S
Zr595       O604   2.378       .  S
Zr595       O605   2.413       .  S
Zr595       O606   2.414       .  S
O596        H652   0.990       .  S
O596        H660   0.990       .  S
O597        C617   1.290       .  A
O598        C619   1.284       .  A
O599       Zr609   2.467       .  S
O599        C618   1.290       .  A
O600       Zr608   2.410       .  S
O600        C619   1.280       .  A
O601        C618   1.279       .  A
O602       Zr610   2.393       .  S
O602        C617   1.277       .  A
O603       Zr608   2.390       .  S
O603       Zr610   2.376       .  S
O604       Zr609   2.382       .  S
O604       Zr610   2.386       .  S
O604        H639   0.966       .  S
O605       Zr608   2.389       .  S
O605       Zr625   2.413       .  S
O605        H642   0.966       .  S
O606       Zr609   2.384       .  S
O606       Zr625   2.409       .  S
Zr607       O632   2.441       .  S
Zr607       O626   2.401       .  S
Zr607       O634   2.436       .  S
Zr607       O622   2.467       .  S
Zr607       O613   2.400       .  S
Zr607       O614   2.395       .  S
Zr607       O615   2.372       .  S
Zr607       O616   2.395       .  S
Zr608       O627   2.440       .  S
Zr608       O620   2.434       .  S
Zr608       O621   2.400       .  S
Zr608       O614   2.394       .  S
Zr608       O615   2.379       .  S
Zr609       O611   2.439       .  S
Zr609       O633   2.436       .  S
Zr609       O635   2.421       .  S
Zr609       O613   2.406       .  S
Zr609       O616   2.395       .  S
Zr610       O636   2.435       .  S
Zr610       O637   2.435       .  S
Zr610       O612   2.436       .  S
Zr610       O613   2.385       .  S
Zr610       O614   2.389       .  S
O611        H648   0.990       .  S
O612        H643   0.990       .  S
O612        H657   0.990       .  S
O614        H640   0.966       .  S
O615       Zr625   2.359       .  S
O616       Zr625   2.372       .  S
O616        H641   0.966       .  S
C617       C1662   1.482       .  S
C618       C1513   1.486       .  S
C619       C1562   1.484       .  S
O620        H656   0.990       .  S
O621        C623   1.279       .  A
O622        C623   1.290       .  A
C623       C2142   1.472       .  S
O624       Zr625   2.438       .  S
O624        H653   0.990       .  S
Zr625       O628   2.437       .  S
Zr625       O629   2.439       .  S
Zr625       O630   2.464       .  S
O626        C631   1.279       .  A
O627        H644   0.990       .  S
O627        H659   0.990       .  S
O628        H645   0.990       .  S
O629        H649   0.990       .  S
O629        H658   0.990       .  S
O630        C631   1.290       .  A
C631       C1533   1.480       .  S
O632        H651   0.990       .  S
O632        H655   0.990       .  S
O633        H647   0.989       .  S
O633        H654   0.990       .  S
O634        C638   1.286       .  A
O635        C638   1.284       .  A
O636        H646   0.990       .  S
O637        H650   0.989       .  S
C638       C1573   1.477       .  S
Zr661       O662   2.443       .  S
Zr661       O663   2.470       .  S
Zr661       O664   2.443       .  S
Zr661       O667   2.420       .  S
Zr661       O669   2.380       .  S
Zr661       O670   2.379       .  S
Zr661       O671   2.419       .  S
Zr661       O672   2.413       .  S
O662        H718   0.990       .  S
O662        H726   0.991       .  S
O663        C683   1.292       .  A
O664        C685   1.284       .  A
O665       Zr675   2.462       .  S
O665        C684   1.290       .  A
O666       Zr674   2.419       .  S
O666        C685   1.279       .  A
O667        C684   1.282       .  A
O668       Zr676   2.396       .  S
O668        C683   1.278       .  A
O669       Zr674   2.390       .  S
O669       Zr676   2.384       .  S
O670       Zr675   2.374       .  S
O670       Zr676   2.389       .  S
O670        H705   0.965       .  S
O671       Zr674   2.398       .  S
O671       Zr691   2.424       .  S
O671        H708   0.966       .  S
O672       Zr675   2.378       .  S
O672       Zr691   2.410       .  S
Zr673       O698   2.437       .  S
Zr673       O692   2.401       .  S
Zr673       O700   2.448       .  S
Zr673       O688   2.480       .  S
Zr673       O679   2.395       .  S
Zr673       O680   2.406       .  S
Zr673       O681   2.376       .  S
Zr673       O682   2.399       .  S
Zr674       O693   2.442       .  S
Zr674       O686   2.436       .  S
Zr674       O687   2.405       .  S
Zr674       O680   2.400       .  S
Zr674       O681   2.390       .  S
Zr675       O677   2.437       .  S
Zr675       O699   2.439       .  S
Zr675       O701   2.403       .  S
Zr675       O679   2.407       .  S
Zr675       O682   2.390       .  S
Zr676       O702   2.435       .  S
Zr676       O703   2.437       .  S
Zr676       O678   2.437       .  S
Zr676       O679   2.379       .  S
Zr676       O680   2.389       .  S
O677        H714   0.990       .  S
O678        H709   0.990       .  S
O678        H723   0.990       .  S
O680        H706   0.965       .  S
O681       Zr691   2.353       .  S
O682       Zr691   2.373       .  S
O682        H707   0.966       .  S
C683       C1602   1.484       .  S
C684       C1782   1.499       .  S
C685       C1482   1.482       .  S
O686        H722   0.990       .  S
O687        C689   1.273       .  A
O688        C689   1.287       .  A
C689       C1873   1.492       .  S
O690       Zr691   2.438       .  S
O690        H719   0.990       .  S
Zr691       O694   2.435       .  S
Zr691       O695   2.438       .  S
Zr691       O696   2.472       .  S
O692        C697   1.279       .  A
O693        H710   0.990       .  S
O693        H725   0.991       .  S
O694        H711   0.990       .  S
O695        H715   0.990       .  S
O695        H724   0.990       .  S
O696        C697   1.292       .  A
C697       C1493   1.488       .  S
O698        H717   0.990       .  S
O698        H721   0.990       .  S
O699        H713   0.990       .  S
O699        H720   0.990       .  S
O700        C704   1.289       .  A
O701        C704   1.281       .  A
O702        H712   0.990       .  S
O703        H716   0.990       .  S
C704       C1462   1.472       .  S
Zr727       O728   2.440       .  S
Zr727       O729   2.469       .  S
Zr727       O730   2.453       .  S
Zr727       O733   2.396       .  S
Zr727       O735   2.370       .  S
Zr727       O736   2.380       .  S
Zr727       O737   2.410       .  S
Zr727       O738   2.420       .  S
O728        H784   0.990       .  S
O728        H792   0.990       .  S
O729        C749   1.291       .  A
O730        C751   1.287       .  A
O731       Zr741   2.480       .  S
O731        C750   1.293       .  A
O732       Zr740   2.392       .  S
O732        C751   1.277       .  A
O733        C750   1.279       .  A
O734       Zr742   2.399       .  S
O734        C749   1.279       .  A
O735       Zr740   2.379       .  S
O735       Zr742   2.376       .  S
O736       Zr741   2.373       .  S
O736       Zr742   2.383       .  S
O736        H771   0.965       .  S
O737       Zr740   2.383       .  S
O737       Zr757   2.415       .  S
O737        H774   0.966       .  S
O738       Zr741   2.384       .  S
O738       Zr757   2.416       .  S
Zr739       O764   2.437       .  S
Zr739       O758   2.412       .  S
Zr739       O766   2.450       .  S
Zr739       O754   2.495       .  S
Zr739       O745   2.400       .  S
Zr739       O746   2.396       .  S
Zr739       O747   2.377       .  S
Zr739       O748   2.402       .  S
Zr740       O759   2.440       .  S
Zr740       O752   2.434       .  S
Zr740       O753   2.369       .  S
Zr740       O746   2.390       .  S
Zr740       O747   2.388       .  S
Zr741       O743   2.435       .  S
Zr741       O765   2.439       .  S
Zr741       O767   2.415       .  S
Zr741       O745   2.406       .  S
Zr741       O748   2.400       .  S
Zr742       O768   2.434       .  S
Zr742       O769   2.438       .  S
Zr742       O744   2.437       .  S
Zr742       O745   2.379       .  S
Zr742       O746   2.389       .  S
O743        H780   0.990       .  S
O744        H775   0.990       .  S
O744        H789   0.990       .  S
O746        H772   0.966       .  S
O747       Zr757   2.367       .  S
O748       Zr757   2.375       .  S
O748        H773   0.966       .  S
C749       C1522   1.481       .  S
C750       C1682   1.493       .  S
C751       C1453   1.480       .  S
O752        H788   0.990       .  S
O753        C755   1.273       .  A
O754        C755   1.295       .  A
C755       C1793   1.478       .  S
O756       Zr757   2.439       .  S
O756        H785   0.991       .  S
Zr757       O760   2.438       .  S
Zr757       O761   2.440       .  S
Zr757       O762   2.467       .  S
O758        C763   1.281       .  A
O759        H776   0.990       .  S
O759        H791   0.990       .  S
O760        H777   0.990       .  S
O761        H781   0.990       .  S
O761        H790   0.990       .  S
O762        C763   1.290       .  A
C763       C1433   1.491       .  S
O764        H783   0.990       .  S
O764        H787   0.990       .  S
O765        H779   0.990       .  S
O765        H786   0.990       .  S
O766        C770   1.289       .  A
O767        C770   1.283       .  A
O768        H778   0.990       .  S
O769        H782   0.990       .  S
C770       C1473   1.482       .  S
Zr793       O794   2.440       .  S
Zr793       O795   2.441   1_545  S
Zr793       O796   2.502       .  S
Zr793       O799   2.454       .  S
Zr793       O801   2.379       .  S
Zr793       O802   2.400   1_545  S
Zr793       O803   2.403       .  S
Zr793       O804   2.408       .  S
O794        H850   0.990       .  S
O794        H858   0.990       .  S
O795        C815   1.286       .  A
O796        C817   1.295       .  A
O797       Zr807   2.416   1_545  S
O797        C816   1.282       .  A
O798       Zr806   2.385       .  S
O798        C817   1.276       .  A
O799        C816   1.290       .  A
O800       Zr808   2.452       .  S
O800        C815   1.287       .  A
O801       Zr806   2.398       .  S
O801       Zr808   2.379   1_545  S
O802       Zr807   2.395       .  S
O802       Zr808   2.368       .  S
O802        H837   0.966       .  S
O803       Zr806   2.399       .  S
O803       Zr823   2.393       .  S
O803        H840   0.966       .  S
O804       Zr807   2.411   1_545  S
O804       Zr823   2.387       .  S
Zr805       O830   2.441   1_546  S
Zr805       O824   2.457       .  S
Zr805       O832   2.408   1_545  S
Zr805       O820   2.440   1_556  S
Zr805       O811   2.414   1_545  S
Zr805       O812   2.409       .  S
Zr805       O813   2.370       .  S
Zr805       O814   2.378       .  S
Zr806       O825   2.437       .  S
Zr806       O818   2.435   1_556  S
Zr806       O819   2.406   1_556  S
Zr806       O812   2.389       .  S
Zr806       O813   2.389       .  S
Zr807       O809   2.435   1_565  S
Zr807       O831   2.438       .  S
Zr807       O833   2.466       .  S
Zr807       O811   2.390       .  S
Zr807       O814   2.377   1_565  S
Zr808       O834   2.436       .  S
Zr808       O835   2.434       .  S
Zr808       O810   2.436       .  S
Zr808       O811   2.409       .  S
Zr808       O812   2.410   1_565  S
O809        H846   0.990   1_545  S
O810        H841   0.990       .  S
O810        H855   0.990   1_556  S
O812        H838   0.966   1_546  S
O813       Zr823   2.377       .  S
O814       Zr823   2.381       .  S
O814        H839   0.965       .  S
C815       C1633   1.502       .  S
C816       C1353   1.482       .  S
C817       C2053   1.484       .  S
O818        H854   0.990       .  S
O819        C821   1.279       .  A
O820        C821   1.285       .  A
C821       C1373   1.483       .  S
O822       Zr823   2.438       .  S
O822        H851   0.991       .  S
Zr823       O826   2.438       .  S
Zr823       O827   2.439       .  S
Zr823       O828   2.405       .  S
O824        C829   1.287       .  A
O825        H842   0.990   1_556  S
O825        H857   0.990       .  S
O826        H843   0.990       .  S
O827        H847   0.990       .  S
O827        H856   0.990       .  S
O828        C829   1.278       .  A
C829       C1413   1.471       .  S
O830        H849   0.991       .  S
O830        H853   0.990       .  S
O831        H845   0.990       .  S
O831        H852   0.990       .  S
O832        C836   1.279       .  A
O833        C836   1.290       .  A
O834        H844   0.990       .  S
O835        H848   0.990   1_556  S
C836       C1402   1.494       .  S
Zr859       O860   2.441       .  S
Zr859       O861   2.443   1_545  S
Zr859       O862   2.482       .  S
Zr859       O865   2.447       .  S
Zr859       O867   2.382   1_545  S
Zr859       O868   2.396   1_545  S
Zr859       O869   2.411       .  S
Zr859       O870   2.404       .  S
O860        H916   0.990       .  S
O860        H924   0.990       .  S
O861        C881   1.286       .  A
O862        C883   1.291       .  A
O863       Zr873   2.425       .  S
O863        C882   1.284   1_565  A
O864       Zr872   2.394       .  S
O864        C883   1.276       .  A
O865        C882   1.288       .  A
O866       Zr874   2.444       .  S
O866        C881   1.286       .  A
O867       Zr872   2.399   1_565  S
O867       Zr874   2.379       .  S
O868       Zr873   2.393       .  S
O868       Zr874   2.374       .  S
O868        H903   0.966       .  S
O869       Zr872   2.401       .  S
O869       Zr889   2.392       .  S
O869        H906   0.965       .  S
O870       Zr873   2.403   1_545  S
O870       Zr889   2.387       .  S
Zr871       O896   2.440   1_545  S
Zr871       O890   2.463       .  S
Zr871       O898   2.394   1_545  S
Zr871       O886   2.441       .  S
Zr871       O877   2.418   1_545  S
Zr871       O878   2.407   1_545  S
Zr871       O879   2.374       .  S
Zr871       O880   2.379       .  S
Zr872       O891   2.438       .  S
Zr872       O884   2.436       .  S
Zr872       O885   2.423       .  S
Zr872       O878   2.381   1_545  S
Zr872       O879   2.391       .  S
Zr873       O875   2.435   1_565  S
Zr873       O897   2.438       .  S
Zr873       O899   2.460       .  S
Zr873       O877   2.394       .  S
Zr873       O880   2.375   1_565  S
Zr874       O900   2.436       .  S
Zr874       O901   2.437       .  S
Zr874       O876   2.438       .  S
Zr874       O877   2.411       .  S
Zr874       O878   2.409       .  S
O875        H912   0.990   1_545  S
O876        H907   0.990       .  S
O876        H921   0.990       .  S
O878        H904   0.966       .  S
O879       Zr889   2.382       .  S
O880       Zr889   2.376       .  S
O880        H905   0.965       .  S
C881       C1733   1.497       .  S
C882       C1382   1.486       .  S
C883       C1953   1.473       .  S
O884        H920   0.990       .  S
O885        C887   1.284       .  A
O886        C887   1.286       .  A
C887       C1362   1.490       .  S
O888       Zr889   2.439       .  S
O888        H917   0.990       .  S
Zr889       O892   2.436       .  S
Zr889       O893   2.440       .  S
Zr889       O894   2.419       .  S
O890        C895   1.289       .  A
O891        H908   0.991       .  S
O891        H923   0.990       .  S
O892        H909   0.990       .  S
O893        H913   0.990       .  S
O893        H922   0.990       .  S
O894        C895   1.281       .  A
C895       C1333   1.478       .  S
O896        H915   0.991       .  S
O896        H919   0.990       .  S
O897        H911   0.990       .  S
O897        H918   0.990       .  S
O898        C902   1.277       .  A
O899        C902   1.289       .  A
O900        H910   0.990       .  S
O901        H914   0.990       .  S
C902       C1322   1.483       .  S
Zr925       O926   2.439   1_556  S
Zr925       O927   2.430   1_455  S
Zr925       O928   2.484       .  S
Zr925       O931   2.448   1_556  S
Zr925       O933   2.381   1_455  S
Zr925       O934   2.397   1_455  S
Zr925       O935   2.400       .  S
Zr925       O936   2.403       .  S
O926        H982   0.990       .  S
O926        H990   0.991   1_554  S
O927        C947   1.284       .  A
O928        C949   1.293       .  A
O929       Zr939   2.418   1_554  S
O929        C948   1.284   1_655  A
O930       Zr938   2.385       .  S
O930        C949   1.276       .  A
O931        C948   1.288       .  A
O932       Zr940   2.451       .  S
O932        C947   1.287       .  A
O933       Zr938   2.396   1_655  S
O933       Zr940   2.376       .  S
O934       Zr939   2.395       .  S
O934       Zr940   2.375       .  S
O934        H969   0.965       .  S
O935       Zr938   2.392       .  S
O935       Zr955   2.391       .  S
O935        H972   0.966       .  S
O936       Zr939   2.403   1_455  S
O936       Zr955   2.386       .  S
Zr937       O962   2.439       .  S
Zr937       O956   2.446   1_655  S
Zr937       O964   2.418       .  S
Zr937       O952   2.446   1_655  S
Zr937       O943   2.408       .  S
Zr937       O944   2.404       .  S
Zr937       O945   2.374   1_655  S
Zr937       O946   2.383   1_655  S
Zr938       O957   2.438       .  S
Zr938       O950   2.434       .  S
Zr938       O951   2.410       .  S
Zr938       O944   2.384   1_455  S
Zr938       O945   2.379       .  S
Zr939       O941   2.436   1_556  S
Zr939       O963   2.437   1_556  S
Zr939       O965   2.458       .  S
Zr939       O943   2.388       .  S
Zr939       O946   2.377   1_655  S
Zr940       O966   2.437       .  S
Zr940       O967   2.436       .  S
Zr940       O942   2.436       .  S
Zr940       O943   2.403       .  S
Zr940       O944   2.408       .  S
O941        H978   0.990       .  S
O942        H973   0.990       .  S
O942        H987   0.990       .  S
O944        H970   0.966       .  S
O945       Zr955   2.374       .  S
O946       Zr955   2.381       .  S
O946        H971   0.965       .  S
C947       C2193   1.498       .  S
C948       C1282   1.481       .  S
C949       C1542   1.479       .  S
O950        H986   0.990   1_455  S
O951        C953   1.281       .  A
O952        C953   1.288       .  A
C953       C1253   1.481       .  S
O954       Zr955   2.436       .  S
O954        H983   0.990       .  S
Zr955       O958   2.436       .  S
Zr955       O959   2.438       .  S
Zr955       O960   2.408       .  S
O956        C961   1.286       .  A
O957        H974   0.990       .  S
O957        H989   0.990       .  S
O958        H975   0.990       .  S
O959        H979   0.990       .  S
O959        H988   0.990   1_556  S
O960        C961   1.279       .  A
C961       C1422   1.466       .  S
O962        H981   0.990       .  S
O962        H985   0.990       .  S
O963        H977   0.990       .  S
O963        H984   0.990       .  S
O964        C968   1.282       .  A
O965        C968   1.289       .  A
O966        H976   0.990       .  S
O967        H980   0.990       .  S
C968       C1302   1.493       .  S
Zr991       O992   2.440       .  S
Zr991       O993   2.435   1_455  S
Zr991       O994   2.476       .  S
Zr991       O997   2.447       .  S
Zr991       O999   2.380   1_455  S
Zr991      O1000   2.400   1_455  S
Zr991      O1001   2.408       .  S
Zr991      O1002   2.401       .  S
O992       H1048   0.990       .  S
O992       H1056   0.991       .  S
O993       C1013   1.285       .  A
O994       C1015   1.291       .  A
O995      Zr1005   2.423       .  S
O995       C1014   1.285   1_655  A
O996      Zr1004   2.393       .  S
O996       C1015   1.277       .  A
O997       C1014   1.288       .  A
O998      Zr1006   2.450       .  S
O998       C1013   1.287       .  A
O999      Zr1004   2.394   1_655  S
O999      Zr1006   2.369       .  S
O1000     Zr1005   2.395       .  S
O1000     Zr1006   2.377       .  S
O1000      H1035   0.965       .  S
O1001     Zr1004   2.393       .  S
O1001     Zr1021   2.394       .  S
O1001      H1038   0.966       .  S
O1002     Zr1005   2.402   1_455  S
O1002     Zr1021   2.383       .  S
Zr1003     O1028   2.441       .  S
Zr1003     O1022   2.459   1_655  S
Zr1003     O1030   2.417       .  S
Zr1003     O1018   2.437   1_655  S
Zr1003     O1009   2.412       .  S
Zr1003     O1010   2.411       .  S
Zr1003     O1011   2.379   1_655  S
Zr1003     O1012   2.376   1_655  S
Zr1004     O1023   2.438       .  S
Zr1004     O1016   2.436       .  S
Zr1004     O1017   2.414       .  S
Zr1004     O1010   2.386   1_455  S
Zr1004     O1011   2.386       .  S
Zr1005     O1007   2.436       .  S
Zr1005     O1029   2.435       .  S
Zr1005     O1031   2.464       .  S
Zr1005     O1009   2.388       .  S
Zr1005     O1012   2.375   1_655  S
Zr1006     O1032   2.435       .  S
Zr1006     O1033   2.435       .  S
Zr1006     O1008   2.439       .  S
Zr1006     O1009   2.414       .  S
Zr1006     O1010   2.405       .  S
O1007      H1044   0.990       .  S
O1008      H1039   0.990       .  S
O1008      H1053   0.990       .  S
O1010      H1036   0.966       .  S
O1011     Zr1021   2.380       .  S
O1012     Zr1021   2.386       .  S
O1012      H1037   0.965       .  S
C1013      C2082   1.493       .  S
C1014      C1262   1.485       .  S
C1015      C1622   1.476       .  S
O1016      H1052   0.990       .  S
O1017      C1019   1.282       .  A
O1018      C1019   1.285       .  A
C1019      C1273   1.483       .  S
O1020     Zr1021   2.439       .  S
O1020      H1049   0.990       .  S
Zr1021     O1024   2.437       .  S
Zr1021     O1025   2.439       .  S
Zr1021     O1026   2.411       .  S
O1022      C1027   1.288       .  A
O1023      H1040   0.990       .  S
O1023      H1055   0.990       .  S
O1024      H1041   0.989       .  S
O1025      H1045   0.990       .  S
O1025      H1054   0.990       .  S
O1026      C1027   1.280       .  A
C1027      C1342   1.473       .  S
O1028      H1047   0.991       .  S
O1028      H1051   0.990       .  S
O1029      H1043   0.990       .  S
O1029      H1050   0.990       .  S
O1030      C1034   1.281       .  A
O1031      C1034   1.290       .  A
O1032      H1042   0.990       .  S
O1033      H1046   0.990       .  S
C1034      C1242   1.498       .  S
Zr1057     O1058   2.442   1_556  S
Zr1057     O1059   2.462       .  S
Zr1057     O1060   2.445   1_556  S
Zr1057     O1063   2.419       .  S
Zr1057     O1065   2.377       .  S
Zr1057     O1066   2.379       .  S
Zr1057     O1067   2.414       .  S
Zr1057     O1068   2.410       .  S
O1058      H1114   0.991       .  S
O1058      H1122   0.990       .  S
O1059      C1079   1.289       .  A
O1060      C1081   1.285       .  A
O1061     Zr1071   2.455       .  S
O1061      C1080   1.288       .  A
O1062     Zr1070   2.427   1_554  S
O1062      C1081   1.283       .  A
O1063      C1080   1.282       .  A
O1064     Zr1072   2.399       .  S
O1064      C1079   1.278       .  A
O1065     Zr1070   2.388       .  S
O1065     Zr1072   2.379       .  S
O1066     Zr1071   2.383       .  S
O1066     Zr1072   2.386       .  S
O1066      H1101   0.966       .  S
O1067     Zr1070   2.396       .  S
O1067     Zr1087   2.409       .  S
O1067      H1104   0.966   1_556  S
O1068     Zr1071   2.384       .  S
O1068     Zr1087   2.409       .  S
Zr1069     O1094   2.441       .  S
Zr1069     O1088   2.439       .  S
Zr1069     O1096   2.454       .  S
Zr1069     O1084   2.454       .  S
Zr1069     O1075   2.402       .  S
Zr1069     O1076   2.409       .  S
Zr1069     O1077   2.384       .  S
Zr1069     O1078   2.391       .  S
Zr1070     O1089   2.438   1_556  S
Zr1070     O1082   2.435   1_556  S
Zr1070     O1083   2.407       .  S
Zr1070     O1076   2.394       .  S
Zr1070     O1077   2.400       .  S
Zr1071     O1073   2.435       .  S
Zr1071     O1095   2.439       .  S
Zr1071     O1097   2.415       .  S
Zr1071     O1075   2.402       .  S
Zr1071     O1078   2.396       .  S
Zr1072     O1098   2.435       .  S
Zr1072     O1099   2.436       .  S
Zr1072     O1074   2.438       .  S
Zr1072     O1075   2.386       .  S
Zr1072     O1076   2.387       .  S
O1073      H1110   0.990       .  S
O1074      H1105   0.990       .  S
O1074      H1119   0.990       .  S
O1076      H1102   0.966       .  S
O1077     Zr1087   2.370       .  S
O1078     Zr1087   2.377       .  S
O1078      H1103   0.966       .  S
C1079      C1393   1.483       .  S
C1080      C1293   1.496       .  S
C1081      C1213   1.487       .  S
O1082      H1118   0.990       .  S
O1083      C1085   1.279       .  A
O1084      C1085   1.287       .  A
C1085      C1893   1.465       .  S
O1086     Zr1087   2.438       .  S
O1086      H1115   0.990       .  S
Zr1087     O1090   2.436       .  S
Zr1087     O1091   2.438       .  S
Zr1087     O1092   2.451       .  S
O1088      C1093   1.285       .  A
O1089      H1106   0.990       .  S
O1089      H1121   0.991       .  S
O1090      H1107   0.990   1_556  S
O1091      H1111   0.990       .  S
O1091      H1120   0.990       .  S
O1092      C1093   1.288       .  A
C1093      C1442   1.497       .  S
O1094      H1113   0.990       .  S
O1094      H1117   0.990       .  S
O1095      H1109   0.990       .  S
O1095      H1116   0.990       .  S
O1096      C1100   1.288       .  A
O1097      C1100   1.282       .  A
O1098      H1108   0.990       .  S
O1099      H1112   0.990       .  S
C1100      C1193   1.485       .  S
Zr1123     O1124   2.442       .  S
Zr1123     O1125   2.457       .  S
Zr1123     O1126   2.448       .  S
Zr1123     O1129   2.405       .  S
Zr1123     O1131   2.375       .  S
Zr1123     O1132   2.383       .  S
Zr1123     O1133   2.402       .  S
Zr1123     O1134   2.410       .  S
O1124      H1180   0.990       .  S
O1124      H1188   0.991       .  S
O1125      C1145   1.289       .  A
O1126      C1147   1.287       .  A
O1127     Zr1137   2.473       .  S
O1127      C1146   1.292       .  A
O1128     Zr1136   2.415       .  S
O1128      C1147   1.281       .  A
O1129      C1146   1.281       .  A
O1130     Zr1138   2.400       .  S
O1130      C1145   1.280       .  A
O1131     Zr1136   2.387       .  S
O1131     Zr1138   2.379       .  S
O1132     Zr1137   2.376       .  S
O1132     Zr1138   2.381       .  S
O1132      H1167   0.965       .  S
O1133     Zr1136   2.385       .  S
O1133     Zr1153   2.404       .  S
O1133      H1170   0.966       .  S
O1134     Zr1137   2.387       .  S
O1134     Zr1153   2.404       .  S
Zr1135     O1160   2.441       .  S
Zr1135     O1154   2.431       .  S
Zr1135     O1162   2.465       .  S
Zr1135     O1150   2.487       .  S
Zr1135     O1141   2.403       .  S
Zr1135     O1142   2.406       .  S
Zr1135     O1143   2.381       .  S
Zr1135     O1144   2.402       .  S
Zr1136     O1155   2.436       .  S
Zr1136     O1148   2.435       .  S
Zr1136     O1149   2.390       .  S
Zr1136     O1142   2.397       .  S
Zr1136     O1143   2.394       .  S
Zr1137     O1139   2.437       .  S
Zr1137     O1161   2.438       .  S
Zr1137     O1163   2.427       .  S
Zr1137     O1141   2.402       .  S
Zr1137     O1144   2.401       .  S
Zr1138     O1164   2.436       .  S
Zr1138     O1165   2.435       .  S
Zr1138     O1140   2.437       .  S
Zr1138     O1141   2.378       .  S
Zr1138     O1142   2.387       .  S
O1139      H1176   0.990       .  S
O1140      H1171   0.990       .  S
O1140      H1185   0.990       .  S
O1142      H1168   0.965       .  S
O1143     Zr1153   2.378       .  S
O1144     Zr1153   2.383       .  S
O1144      H1169   0.965       .  S
C1145      C1313   1.479       .  S
C1146      C1233   1.496       .  S
C1147      C1202   1.482       .  S
O1148      H1184   0.990       .  S
O1149      C1151   1.278       .  A
O1150      C1151   1.293       .  A
C1151      C1813   1.484       .  S
O1152     Zr1153   2.439       .  S
O1152      H1181   0.991       .  S
Zr1153     O1156   2.438       .  S
Zr1153     O1157   2.439       .  S
Zr1153     O1158   2.436       .  S
O1154      C1159   1.283       .  A
O1155      H1172   0.990       .  S
O1155      H1187   0.990       .  S
O1156      H1173   0.990       .  S
O1157      H1177   0.990       .  S
O1157      H1186   0.990       .  S
O1158      C1159   1.284       .  A
C1159      C1502   1.491       .  S
O1160      H1179   0.991       .  S
O1160      H1183   0.990       .  S
O1161      H1175   0.990       .  S
O1161      H1182   0.990       .  S
O1162      C1166   1.290       .  A
O1163      C1166   1.284       .  A
O1164      H1174   0.990       .  S
O1165      H1178   0.990       .  S
C1166      C1222   1.489       .  S
C1189      C1190   1.402       .  A
C1189      C1194   1.396       .  A
C1189      H1199   1.083       .  S
C1190      C1195   1.486       .  S
C1190      C1191   1.410       .  A
C1191      C1192   1.401       .  A
C1191      F1196   1.357       .  S
C1192      C1193   1.405       .  A
C1192      H1197   1.083       .  S
C1193      C1194   1.412       .  A
C1194      F1198   1.357       .  S
C1195      C1200   1.409       .  A
C1195      C1204   1.404       .  A
C1200      C1201   1.399       .  A
C1200      F1205   1.358       .  S
C1201      C1202   1.405       .  A
C1201      H1206   1.083       .  S
C1202      C1203   1.410       .  A
C1203      C1204   1.398       .  A
C1203      F1207   1.358       .  S
C1204      H1208   1.083       .  S
C1209      C1210   1.406       .  A
C1209      C1214   1.402       .  A
C1209      H1219   1.083       .  S
C1210      C1215   1.492       .  S
C1210      C1211   1.409       .  A
C1211      C1212   1.399       .  A
C1211      F1216   1.358       .  S
C1212      C1213   1.406       .  A
C1212      H1217   1.083       .  S
C1213      C1214   1.410       .  A
C1214      F1218   1.357       .  S
C1215      C1220   1.410       .  A
C1215      C1224   1.404       .  A
C1220      C1221   1.403       .  A
C1220      F1225   1.357       .  S
C1221      C1222   1.406       .  A
C1221      H1226   1.083       .  S
C1222      C1223   1.412       .  A
C1223      C1224   1.398       .  A
C1223      F1227   1.357       .  S
C1224      H1228   1.083       .  S
C1229      C1230   1.409       .  A
C1229      C1234   1.407       .  A
C1229      H1239   1.083       .  S
C1230      C1235   1.493   1_565  S
C1230      C1231   1.404       .  A
C1231      C1232   1.398       .  A
C1231      F1236   1.358       .  S
C1232      C1233   1.412       .  A
C1232      H1237   1.083       .  S
C1233      C1234   1.410       .  A
C1234      F1238   1.357       .  S
C1235      C1240   1.404       .  A
C1235      C1244   1.408       .  A
C1240      C1241   1.400       .  A
C1240      F1245   1.358       .  S
C1241      C1242   1.412       .  A
C1241      H1246   1.083       .  S
C1242      C1243   1.410       .  A
C1243      C1244   1.406       .  A
C1243      F1247   1.357       .  S
C1244      H1248   1.083       .  S
C1249      C1250   1.406   1_655  A
C1249      C1254   1.398       .  A
C1249      H1259   1.083       .  S
C1250      C1255   1.486       .  S
C1250      C1251   1.406       .  A
C1251      C1252   1.399       .  A
C1251      F1256   1.358       .  S
C1252      C1253   1.408       .  A
C1252      H1257   1.083       .  S
C1253      C1254   1.405   1_455  A
C1254      F1258   1.357       .  S
C1255      C1260   1.405       .  A
C1255      C1264   1.407       .  A
C1260      C1261   1.395       .  A
C1260      F1265   1.358       .  S
C1261      C1262   1.408       .  A
C1261      H1266   1.083       .  S
C1262      C1263   1.409       .  A
C1263      C1264   1.402       .  A
C1263      F1267   1.357       .  S
C1264      H1268   1.083       .  S
C1269      C1270   1.405       .  A
C1269      C1274   1.398       .  A
C1269      H1279   1.083   1_455  S
C1270      C1275   1.483       .  S
C1270      C1271   1.404       .  A
C1271      C1272   1.397       .  A
C1271      F1276   1.357       .  S
C1272      C1273   1.408       .  A
C1272      H1277   1.083       .  S
C1273      C1274   1.409       .  A
C1274      F1278   1.357   1_455  S
C1275      C1280   1.404       .  A
C1275      C1284   1.407       .  A
C1280      C1281   1.395       .  A
C1280      F1285   1.358       .  S
C1281      C1282   1.407       .  A
C1281      H1286   1.083       .  S
C1282      C1283   1.407       .  A
C1283      C1284   1.401       .  A
C1283      F1287   1.357       .  S
C1284      H1288   1.083       .  S
C1289      C1290   1.408       .  A
C1289      C1294   1.404       .  A
C1289      H1299   1.083       .  S
C1290      C1295   1.492   1_565  S
C1290      C1291   1.404       .  A
C1291      C1292   1.400       .  A
C1291      F1296   1.357       .  S
C1292      C1293   1.411       .  A
C1292      H1297   1.083       .  S
C1293      C1294   1.411       .  A
C1294      F1298   1.357       .  S
C1295      C1300   1.404       .  A
C1295      C1304   1.409       .  A
C1300      C1301   1.396       .  A
C1300      F1305   1.357       .  S
C1301      C1302   1.409       .  A
C1301      H1306   1.083       .  S
C1302      C1303   1.410       .  A
C1303      C1304   1.407       .  A
C1303      F1307   1.357       .  S
C1304      H1308   1.083       .  S
C1309      C1310   1.407       .  A
C1309      C1314   1.401       .  A
C1309      H1319   1.083       .  S
C1310      C1315   1.483   1_655  S
C1310      C1311   1.404       .  A
C1311      C1312   1.394       .  A
C1311      F1316   1.358       .  S
C1312      C1313   1.407       .  A
C1312      H1317   1.084       .  S
C1313      C1314   1.407       .  A
C1314      F1318   1.357       .  S
C1315      C1320   1.410       .  A
C1315      C1324   1.400       .  A
C1320      C1321   1.400       .  A
C1320      F1325   1.357       .  S
C1321      C1322   1.403       .  A
C1321      H1326   1.083       .  S
C1322      C1323   1.414       .  A
C1323      C1324   1.395       .  A
C1323      F1327   1.358       .  S
C1324      H1328   1.083       .  S
C1329      C1330   1.408       .  A
C1329      C1334   1.399       .  A
C1329      H1339   1.083       .  S
C1330      C1335   1.494       .  S
C1330      C1331   1.410       .  A
C1331      C1332   1.404       .  A
C1331      F1336   1.357       .  S
C1332      C1333   1.406       .  A
C1332      H1337   1.084       .  S
C1333      C1334   1.403       .  A
C1334      F1338   1.357       .  S
C1335      C1340   1.410       .  A
C1335      C1344   1.409       .  A
C1340      C1341   1.402       .  A
C1340      F1345   1.357       .  S
C1341      C1342   1.404       .  A
C1341      H1346   1.084       .  S
C1342      C1343   1.403       .  A
C1343      C1344   1.399       .  A
C1343      F1347   1.358       .  S
C1344      H1348   1.083       .  S
C1349      C1350   1.403       .  A
C1349      C1354   1.399   1_545  A
C1349      H1359   1.083   1_545  S
C1350      C1355   1.484       .  S
C1350      C1351   1.407       .  A
C1351      C1352   1.399       .  A
C1351      F1356   1.357       .  S
C1352      C1353   1.404       .  A
C1352      H1357   1.083       .  S
C1353      C1354   1.411   1_545  A
C1354      F1358   1.358       .  S
C1355      C1360   1.403       .  A
C1355      C1364   1.406       .  A
C1360      C1361   1.394       .  A
C1360      F1365   1.358       .  S
C1361      C1362   1.408       .  A
C1361      H1366   1.083       .  S
C1362      C1363   1.412       .  A
C1363      C1364   1.404       .  A
C1363      F1367   1.357       .  S
C1364      H1368   1.083       .  S
C1369      C1370   1.404       .  A
C1369      C1374   1.394       .  A
C1369      H1379   1.083       .  S
C1370      C1375   1.488       .  S
C1370      C1371   1.410       .  A
C1371      C1372   1.400       .  A
C1371      F1376   1.357       .  S
C1372      C1373   1.406       .  A
C1372      H1377   1.083       .  S
C1373      C1374   1.411       .  A
C1374      F1378   1.358       .  S
C1375      C1380   1.408       .  A
C1375      C1384   1.406       .  A
C1380      C1381   1.399   1_545  A
C1380      F1385   1.357   1_545  S
C1381      C1382   1.407   1_565  A
C1381      H1386   1.083       .  S
C1382      C1383   1.409       .  A
C1383      C1384   1.398       .  A
C1383      F1387   1.357       .  S
C1384      H1388   1.083       .  S
C1389      C1390   1.402       .  A
C1389      C1394   1.397       .  A
C1389      H1399   1.083       .  S
C1390      C1395   1.484   1_655  S
C1390      C1391   1.408       .  A
C1391      C1392   1.403       .  A
C1391      F1396   1.357       .  S
C1392      C1393   1.406       .  A
C1392      H1397   1.083       .  S
C1393      C1394   1.411       .  A
C1394      F1398   1.358       .  S
C1395      C1400   1.402       .  A
C1395      C1404   1.406       .  A
C1400      C1401   1.399       .  A
C1400      F1405   1.358   1_556  S
C1401      C1402   1.413       .  A
C1401      H1406   1.083       .  S
C1402      C1403   1.408       .  A
C1403      C1404   1.403       .  A
C1403      F1407   1.356       .  S
C1404      H1408   1.083       .  S
C1409      C1410   1.405       .  A
C1409      C1414   1.398       .  A
C1409      H1419   1.083       .  S
C1410      C1415   1.487       .  S
C1410      C1411   1.410       .  A
C1411      C1412   1.398       .  A
C1411      F1416   1.358       .  S
C1412      C1413   1.403       .  A
C1412      H1417   1.084       .  S
C1413      C1414   1.406       .  A
C1414      F1418   1.358       .  S
C1415      C1420   1.410       .  A
C1415      C1424   1.406       .  A
C1420      C1421   1.398       .  A
C1420      F1425   1.358       .  S
C1421      C1422   1.402       .  A
C1421      H1426   1.084       .  S
C1422      C1423   1.404       .  A
C1423      C1424   1.398       .  A
C1423      F1427   1.358       .  S
C1424      H1428   1.083       .  S
C1429      C1430   1.403       .  A
C1429      C1434   1.399       .  A
C1429      H1439   1.083       .  S
C1430      C1435   1.494       .  S
C1430      C1431   1.411       .  A
C1431      C1432   1.406       .  A
C1431      F1436   1.357       .  S
C1432      C1433   1.406       .  A
C1432      H1437   1.083       .  S
C1433      C1434   1.412       .  A
C1434      F1438   1.358       .  S
C1435      C1440   1.409       .  A
C1435      C1444   1.404       .  A
C1440      C1441   1.404       .  A
C1440      F1445   1.357       .  S
C1441      C1442   1.408       .  A
C1441      H1446   1.083       .  S
C1442      C1443   1.413       .  A
C1443      C1444   1.403       .  A
C1443      F1447   1.357       .  S
C1444      H1448   1.083       .  S
C1449      C1450   1.407       .  A
C1449      C1454   1.402       .  A
C1449      H1459   1.083       .  S
C1450      C1455   1.476       .  S
C1450      C1451   1.400       .  A
C1451      C1452   1.390       .  A
C1451      F1456   1.358       .  S
C1452      C1453   1.409       .  A
C1452      H1457   1.083       .  S
C1453      C1454   1.407       .  A
C1454      F1458   1.357       .  S
C1455      C1460   1.402       .  A
C1455      C1464   1.407       .  A
C1460      C1461   1.393       .  A
C1460      F1465   1.357       .  S
C1461      C1462   1.406       .  A
C1461      H1466   1.084       .  S
C1462      C1463   1.404       .  A
C1463      C1464   1.399       .  A
C1463      F1467   1.357       .  S
C1464      H1468   1.083       .  S
C1469      C1470   1.402       .  A
C1469      C1474   1.395       .  A
C1469      H1479   1.083       .  S
C1470      C1475   1.486       .  S
C1470      C1471   1.410       .  A
C1471      C1472   1.401       .  A
C1471      F1476   1.357       .  S
C1472      C1473   1.404       .  A
C1472      H1477   1.083       .  S
C1473      C1474   1.411       .  A
C1474      F1478   1.358       .  S
C1475      C1480   1.409   1_556  A
C1475      C1484   1.403   1_556  A
C1480      C1481   1.399       .  A
C1480      F1485   1.357   1_554  S
C1481      C1482   1.404       .  A
C1481      H1486   1.083       .  S
C1482      C1483   1.410       .  A
C1483      C1484   1.397       .  A
C1483      F1487   1.357       .  S
C1484      H1488   1.083       .  S
C1489      C1490   1.399       .  A
C1489      C1494   1.396       .  A
C1489      H1499   1.084       .  S
C1490      C1495   1.484       .  S
C1490      C1491   1.408       .  A
C1491      C1492   1.405       .  A
C1491      F1496   1.357       .  S
C1492      C1493   1.405       .  A
C1492      H1497   1.083       .  S
C1493      C1494   1.414       .  A
C1494      F1498   1.358       .  S
C1495      C1500   1.406       .  A
C1495      C1504   1.401       .  A
C1500      C1501   1.402       .  A
C1500      F1505   1.357       .  S
C1501      C1502   1.408       .  A
C1501      H1506   1.083       .  S
C1502      C1503   1.413       .  A
C1503      C1504   1.399       .  A
C1503      F1507   1.357       .  S
C1504      H1508   1.083       .  S
C1509      C1510   1.400       .  A
C1509      C1514   1.395       .  A
C1509      H1519   1.083       .  S
C1510      C1515   1.487       .  S
C1510      C1511   1.411       .  A
C1511      C1512   1.407       .  A
C1511      F1516   1.357       .  S
C1512      C1513   1.406       .  A
C1512      H1517   1.083       .  S
C1513      C1514   1.411       .  A
C1514      F1518   1.357       .  S
C1515      C1520   1.406       .  A
C1515      C1524   1.406       .  A
C1520      C1521   1.397       .  A
C1520      F1525   1.358       .  S
C1521      C1522   1.406       .  A
C1521      H1526   1.084       .  S
C1522      C1523   1.407       .  A
C1523      C1524   1.404       .  A
C1523      F1527   1.356       .  S
C1524      H1528   1.083       .  S
C1529      C1530   1.402       .  A
C1529      C1534   1.399       .  A
C1529      H1539   1.083       .  S
C1530      C1535   1.488       .  S
C1530      C1531   1.411       .  A
C1531      C1532   1.401       .  A
C1531      F1536   1.357       .  S
C1532      C1533   1.402       .  A
C1532      H1537   1.083       .  S
C1533      C1534   1.410       .  A
C1534      F1538   1.358       .  S
C1535      C1540   1.410       .  A
C1535      C1544   1.402       .  A
C1540      C1541   1.406       .  A
C1540      F1545   1.357       .  S
C1541      C1542   1.404       .  A
C1541      H1546   1.083       .  S
C1542      C1543   1.410       .  A
C1543      C1544   1.396       .  A
C1543      F1547   1.358       .  S
C1544      H1548   1.083       .  S
C1549      C1550   1.405       .  A
C1549      C1554   1.399       .  A
C1549      H1559   1.083       .  S
C1550      C1555   1.479       .  S
C1550      C1551   1.405       .  A
C1551      C1552   1.394       .  A
C1551      F1556   1.358       .  S
C1552      C1553   1.405       .  A
C1552      H1557   1.084       .  S
C1553      C1554   1.406       .  A
C1554      F1558   1.357       .  S
C1555      C1560   1.404       .  A
C1555      C1564   1.403       .  A
C1560      C1561   1.397       .  A
C1560      F1565   1.357       .  S
C1561      C1562   1.409       .  A
C1561      H1566   1.083       .  S
C1562      C1563   1.410       .  A
C1563      C1564   1.395       .  A
C1563      F1567   1.356       .  S
C1564      H1568   1.083       .  S
C1569      C1570   1.406       .  A
C1569      C1574   1.398       .  A
C1569      H1579   1.083       .  S
C1570      C1575   1.479   1_556  S
C1570      C1571   1.404       .  A
C1571      C1572   1.394       .  A
C1571      F1576   1.357       .  S
C1572      C1573   1.407       .  A
C1572      H1577   1.083       .  S
C1573      C1574   1.407       .  A
C1574      F1578   1.358       .  S
C1575      C1580   1.404       .  A
C1575      C1584   1.403       .  A
C1580      C1581   1.395       .  A
C1580      F1585   1.357       .  S
C1581      C1582   1.406       .  A
C1581      H1586   1.083       .  S
C1582      C1583   1.411       .  A
C1583      C1584   1.397       .  A
C1583      F1587   1.356       .  S
C1584      H1588   1.083       .  S
C1589      C1590   1.410       .  A
C1589      C1594   1.406       .  A
C1589      H1599   1.083       .  S
C1590      C1595   1.484       .  S
C1590      C1591   1.400       .  A
C1591      C1592   1.392       .  A
C1591      F1596   1.358       .  S
C1592      C1593   1.413       .  A
C1592      H1597   1.083       .  S
C1593      C1594   1.407       .  A
C1594      F1598   1.357       .  S
C1595      C1600   1.409       .  A
C1595      C1604   1.401       .  A
C1600      C1601   1.401       .  A
C1600      F1605   1.357       .  S
C1601      C1602   1.405       .  A
C1601      H1606   1.083       .  S
C1602      C1603   1.413       .  A
C1603      C1604   1.397       .  A
C1603      F1607   1.358       .  S
C1604      H1608   1.083       .  S
C1609      C1610   1.401       .  A
C1609      C1614   1.399       .  A
C1609      H1619   1.083       .  S
C1610      C1615   1.489       .  S
C1610      C1611   1.412       .  A
C1611      C1612   1.406       .  A
C1611      F1616   1.358       .  S
C1612      C1613   1.404       .  A
C1612      H1617   1.083       .  S
C1613      C1614   1.411       .  A
C1614      F1618   1.357       .  S
C1615      C1620   1.410       .  A
C1615      C1624   1.403       .  A
C1620      C1621   1.405       .  A
C1620      F1625   1.357       .  S
C1621      C1622   1.404       .  A
C1621      H1626   1.083       .  S
C1622      C1623   1.408       .  A
C1623      C1624   1.397       .  A
C1623      F1627   1.358       .  S
C1624      H1628   1.083       .  S
C1629      C1630   1.406       .  A
C1629      C1634   1.407       .  A
C1629      H1639   1.083       .  S
C1630      C1635   1.500       .  S
C1630      C1631   1.410       .  A
C1631      C1632   1.402       .  A
C1631      F1636   1.358       .  S
C1632      C1633   1.409       .  A
C1632      H1637   1.083       .  S
C1633      C1634   1.414       .  A
C1634      F1638   1.357       .  S
C1635      C1640   1.406       .  A
C1635      C1644   1.412       .  A
C1640      C1641   1.396       .  A
C1640      F1645   1.357       .  S
C1641      C1642   1.410       .  A
C1641      H1646   1.083       .  S
C1642      C1643   1.410       .  A
C1643      C1644   1.411       .  A
C1643      F1647   1.357       .  S
C1644      H1648   1.083       .  S
C1649      C1650   1.401       .  A
C1649      C1654   1.399       .  A
C1649      H1659   1.083       .  S
C1650      C1655   1.491       .  S
C1650      C1651   1.410       .  A
C1651      C1652   1.407       .  A
C1651      F1656   1.357       .  S
C1652      C1653   1.405       .  A
C1652      H1657   1.083       .  S
C1653      C1654   1.413       .  A
C1654      F1658   1.358       .  S
C1655      C1660   1.406       .  A
C1655      C1664   1.408       .  A
C1660      C1661   1.398       .  A
C1660      F1665   1.358       .  S
C1661      C1662   1.408       .  A
C1661      H1666   1.084       .  S
C1662      C1663   1.406       .  A
C1663      C1664   1.405       .  A
C1663      F1667   1.357       .  S
C1664      H1668   1.083       .  S
C1669      C1670   1.401       .  A
C1669      C1674   1.397       .  A
C1669      H1679   1.083       .  S
C1670      C1675   1.488       .  S
C1670      C1671   1.410       .  A
C1671      C1672   1.406       .  A
C1671      F1676   1.357       .  S
C1672      C1673   1.406       .  A
C1672      H1677   1.083       .  S
C1673      C1674   1.412       .  A
C1674      F1678   1.358       .  S
C1675      C1680   1.401       .  A
C1675      C1684   1.410       .  A
C1680      C1681   1.396       .  A
C1680      F1685   1.358       .  S
C1681      C1682   1.412       .  A
C1681      H1686   1.083       .  S
C1682      C1683   1.408       .  A
C1683      C1684   1.407       .  A
C1683      F1687   1.357       .  S
C1684      H1688   1.083       .  S
C1689      C1690   1.403       .  A
C1689      C1694   1.398       .  A
C1689      H1699   1.083       .  S
C1690      C1695   1.475       .  S
C1690      C1691   1.403       .  A
C1691      C1692   1.394       .  A
C1691      F1696   1.358       .  S
C1692      C1693   1.408       .  A
C1692      H1697   1.083       .  S
C1693      C1694   1.410       .  A
C1694      F1698   1.357       .  S
C1695      C1700   1.404       .  A
C1695      C1704   1.403       .  A
C1700      C1701   1.395       .  A
C1700      F1705   1.357       .  S
C1701      C1702   1.406       .  A
C1701      H1706   1.083       .  S
C1702      C1703   1.407       .  A
C1703      C1704   1.395       .  A
C1703      F1707   1.357       .  S
C1704      H1708   1.083       .  S
C1709      C1710   1.404       .  A
C1709      C1714   1.396       .  A
C1709      H1719   1.083       .  S
C1710      C1715   1.473       .  S
C1710      C1711   1.405       .  A
C1711      C1712   1.393       .  A
C1711      F1716   1.358       .  S
C1712      C1713   1.403       .  A
C1712      H1717   1.084       .  S
C1713      C1714   1.404       .  A
C1714      F1718   1.358       .  S
C1715      C1720   1.404       .  A
C1715      C1724   1.400   1_556  A
C1720      C1721   1.397   1_556  A
C1720      F1725   1.358       .  S
C1721      C1722   1.409       .  A
C1721      H1726   1.083       .  S
C1722      C1723   1.410       .  A
C1723      C1724   1.393       .  A
C1723      F1727   1.355       .  S
C1724      H1728   1.083   1_554  S
C1729      C1730   1.405       .  A
C1729      C1734   1.401       .  A
C1729      H1739   1.083       .  S
C1730      C1735   1.496       .  S
C1730      C1731   1.410       .  A
C1731      C1732   1.405       .  A
C1731      F1736   1.358       .  S
C1732      C1733   1.409       .  A
C1732      H1737   1.083       .  S
C1733      C1734   1.412       .  A
C1734      F1738   1.357       .  S
C1735      C1740   1.412       .  A
C1735      C1744   1.404       .  A
C1740      C1741   1.406       .  A
C1740      F1745   1.357       .  S
C1741      C1742   1.404       .  A
C1741      H1746   1.083       .  S
C1742      C1743   1.410       .  A
C1743      C1744   1.400       .  A
C1743      F1747   1.358       .  S
C1744      H1748   1.083       .  S
C1749      C1750   1.402       .  A
C1749      C1754   1.395       .  A
C1749      H1759   1.083       .  S
C1750      C1755   1.487       .  S
C1750      C1751   1.411       .  A
C1751      C1752   1.403       .  A
C1751      F1756   1.357       .  S
C1752      C1753   1.403       .  A
C1752      H1757   1.083       .  S
C1753      C1754   1.410       .  A
C1754      F1758   1.358       .  S
C1755      C1760   1.406       .  A
C1755      C1764   1.406       .  A
C1760      C1761   1.399       .  A
C1760      F1765   1.358       .  S
C1761      C1762   1.407       .  A
C1761      H1766   1.084       .  S
C1762      C1763   1.408       .  A
C1763      C1764   1.403       .  A
C1763      F1767   1.357       .  S
C1764      H1768   1.083       .  S
C1769      C1770   1.408       .  A
C1769      C1774   1.407       .  A
C1769      H1779   1.083       .  S
C1770      C1775   1.493       .  S
C1770      C1771   1.405       .  A
C1771      C1772   1.397       .  A
C1771      F1776   1.357       .  S
C1772      C1773   1.409       .  A
C1772      H1777   1.083       .  S
C1773      C1774   1.412       .  A
C1774      F1778   1.357       .  S
C1775      C1780   1.410       .  A
C1775      C1784   1.402       .  A
C1780      C1781   1.403       .  A
C1780      F1785   1.358       .  S
C1781      C1782   1.408       .  A
C1781      H1786   1.083       .  S
C1782      C1783   1.417       .  A
C1783      C1784   1.401       .  A
C1783      F1787   1.357       .  S
C1784      H1788   1.083       .  S
C1789      C1790   1.411       .  A
C1789      C1794   1.406       .  A
C1789      H1799   1.083       .  S
C1790      C1795   1.491       .  S
C1790      C1791   1.404       .  A
C1791      C1792   1.397       .  A
C1791      F1796   1.358       .  S
C1792      C1793   1.408       .  A
C1792      H1797   1.084       .  S
C1793      C1794   1.404       .  A
C1794      F1798   1.357       .  S
C1795      C1800   1.410       .  A
C1795      C1804   1.406       .  A
C1800      C1801   1.403       .  A
C1800      F1805   1.357       .  S
C1801      C1802   1.403       .  A
C1801      H1806   1.084       .  S
C1802      C1803   1.404       .  A
C1803      C1804   1.400       .  A
C1803      F1807   1.358       .  S
C1804      H1808   1.083       .  S
C1809      C1810   1.403       .  A
C1809      C1814   1.393       .  A
C1809      H1819   1.082       .  S
C1810      C1815   1.497       .  S
C1810      C1811   1.416       .  A
C1811      C1812   1.409       .  A
C1811      F1816   1.357       .  S
C1812      C1813   1.404       .  A
C1812      H1817   1.083       .  S
C1813      C1814   1.409       .  A
C1814      F1818   1.358       .  S
C1815      C1820   1.414       .  A
C1815      C1824   1.406       .  A
C1820      C1821   1.403       .  A
C1820      F1825   1.357       .  S
C1821      C1822   1.402       .  A
C1821      H1826   1.083       .  S
C1822      C1823   1.409       .  A
C1823      C1824   1.399       .  A
C1823      F1827   1.358       .  S
C1824      H1828   1.082       .  S
C1829      C1830   1.407       .  A
C1829      C1834   1.398       .  A
C1829      H1839   1.083       .  S
C1830      C1835   1.482       .  S
C1830      C1831   1.405       .  A
C1831      C1832   1.394       .  A
C1831      F1836   1.358       .  S
C1832      C1833   1.407       .  A
C1832      H1837   1.084       .  S
C1833      C1834   1.404       .  A
C1834      F1838   1.357       .  S
C1835      C1840   1.405       .  A
C1835      C1844   1.405       .  A
C1840      C1841   1.395       .  A
C1840      F1845   1.357       .  S
C1841      C1842   1.406       .  A
C1841      H1846   1.083       .  S
C1842      C1843   1.408       .  A
C1843      C1844   1.398       .  A
C1843      F1847   1.357       .  S
C1844      H1848   1.083       .  S
C1849      C1850   1.406       .  A
C1849      C1854   1.398       .  A
C1849      H1859   1.083       .  S
C1850      C1855   1.479       .  S
C1850      C1851   1.403       .  A
C1851      C1852   1.393       .  A
C1851      F1856   1.358       .  S
C1852      C1853   1.408       .  A
C1852      H1857   1.083       .  S
C1853      C1854   1.407       .  A
C1854      F1858   1.356       .  S
C1855      C1860   1.403       .  A
C1855      C1864   1.407       .  A
C1860      C1861   1.393       .  A
C1860      F1865   1.358       .  S
C1861      C1862   1.408       .  A
C1861      H1866   1.083       .  S
C1862      C1863   1.407       .  A
C1863      C1864   1.399       .  A
C1863      F1867   1.357       .  S
C1864      H1868   1.083       .  S
C1869      C1870   1.410       .  A
C1869      C1874   1.407       .  A
C1869      H1879   1.083       .  S
C1870      C1875   1.490       .  S
C1870      C1871   1.401       .  A
C1871      C1872   1.396       .  A
C1871      F1876   1.357       .  S
C1872      C1873   1.411       .  A
C1872      H1877   1.083       .  S
C1873      C1874   1.408       .  A
C1874      F1878   1.357       .  S
C1875      C1880   1.410       .  A
C1875      C1884   1.403       .  A
C1880      C1881   1.405       .  A
C1880      F1885   1.357       .  S
C1881      C1882   1.404       .  A
C1881      H1886   1.083       .  S
C1882      C1883   1.408       .  A
C1883      C1884   1.399       .  A
C1883      F1887   1.358       .  S
C1884      H1888   1.083       .  S
C1889      C1890   1.404       .  A
C1889      C1894   1.397       .  A
C1889      H1899   1.083       .  S
C1890      C1895   1.483       .  S
C1890      C1891   1.409       .  A
C1891      C1892   1.399       .  A
C1891      F1896   1.357       .  S
C1892      C1893   1.401       .  A
C1892      H1897   1.084       .  S
C1893      C1894   1.404       .  A
C1894      F1898   1.358       .  S
C1895      C1900   1.403       .  A
C1895      C1904   1.406   1_556  A
C1900      C1901   1.397   1_556  A
C1900      F1905   1.358       .  S
C1901      C1902   1.411       .  A
C1901      H1906   1.083       .  S
C1902      C1903   1.409       .  A
C1903      C1904   1.399       .  A
C1903      F1907   1.357       .  S
C1904      H1908   1.083       .  S
C1909      C1910   1.412       .  A
C1909      C1914   1.406       .  A
C1909      H1919   1.083       .  S
C1910      C1915   1.488       .  S
C1910      C1911   1.402       .  A
C1911      C1912   1.393       .  A
C1911      F1916   1.357       .  S
C1912      C1913   1.409       .  A
C1912      H1917   1.082       .  S
C1913      C1914   1.405       .  A
C1914      F1918   1.357       .  S
C1915      C1920   1.410       .  A
C1915      C1924   1.402       .  A
C1920      C1921   1.403       .  A
C1920      F1925   1.358       .  S
C1921      C1922   1.406       .  A
C1921      H1926   1.083       .  S
C1922      C1923   1.411       .  A
C1923      C1924   1.396       .  A
C1923      F1927   1.358       .  S
C1924      H1928   1.083       .  S
C1929      C1930   1.409       .  A
C1929      C1934   1.400       .  A
C1929      H1939   1.083   1_565  S
C1930      C1935   1.483   1_565  S
C1930      C1931   1.404       .  A
C1931      C1932   1.395       .  A
C1931      F1936   1.357       .  S
C1932      C1933   1.405       .  A
C1932      H1937   1.084       .  S
C1933      C1934   1.402       .  A
C1934      F1938   1.357       .  S
C1935      C1940   1.409       .  A
C1935      C1944   1.405       .  A
C1940      C1941   1.399       .  A
C1940      F1945   1.357       .  S
C1941      C1942   1.402       .  A
C1941      H1946   1.084       .  S
C1942      C1943   1.401       .  A
C1943      C1944   1.394       .  A
C1943      F1947   1.358       .  S
C1944      H1948   1.083       .  S
C1949      C1950   1.403       .  A
C1949      C1954   1.399       .  A
C1949      H1959   1.083       .  S
C1950      C1955   1.492       .  S
C1950      C1951   1.413       .  A
C1951      C1952   1.405       .  A
C1951      F1956   1.357       .  S
C1952      C1953   1.402       .  A
C1952      H1957   1.083       .  S
C1953      C1954   1.406       .  A
C1954      F1958   1.358       .  S
C1955      C1960   1.401       .  A
C1955      C1964   1.411       .  A
C1960      C1961   1.397       .  A
C1960      F1965   1.357       .  S
C1961      C1962   1.413       .  A
C1961      H1966   1.083       .  S
C1962      C1963   1.408       .  A
C1963      C1964   1.408       .  A
C1963      F1967   1.357       .  S
C1964      H1968   1.083       .  S
C1969      C1970   1.401       .  A
C1969      C1974   1.392       .  A
C1969      H1979   1.084       .  S
C1970      C1975   1.467       .  S
C1970      C1971   1.402       .  A
C1971      C1972   1.395       .  A
C1971      F1976   1.358       .  S
C1972      C1973   1.406       .  A
C1972      H1977   1.083       .  S
C1973      C1974   1.407       .  A
C1974      F1978   1.357       .  S
C1975      C1980   1.401       .  A
C1975      C1984   1.402       .  A
C1980      C1981   1.389       .  A
C1980      F1985   1.358       .  S
C1981      C1982   1.405       .  A
C1981      H1986   1.083       .  S
C1982      C1983   1.409       .  A
C1983      C1984   1.397       .  A
C1983      F1987   1.358       .  S
C1984      H1988   1.083       .  S
C1989      C1990   1.402       .  A
C1989      C1994   1.394       .  A
C1989      H1999   1.083       .  S
C1990      C1995   1.478       .  S
C1990      C1991   1.407       .  A
C1991      C1992   1.397       .  A
C1991      F1996   1.357       .  S
C1992      C1993   1.404       .  A
C1992      H1997   1.083       .  S
C1993      C1994   1.410       .  A
C1994      F1998   1.358       .  S
C1995      C2000   1.408       .  A
C1995      C2004   1.402       .  A
C2000      C2001   1.396       .  A
C2000      F2005   1.358       .  S
C2001      C2002   1.403       .  A
C2001      H2006   1.084       .  S
C2002      C2003   1.408       .  A
C2003      C2004   1.395       .  A
C2003      F2007   1.357       .  S
C2004      H2008   1.083       .  S
C2009      C2010   1.409       .  A
C2009      C2014   1.403       .  A
C2009      H2019   1.083       .  S
C2010      C2015   1.489       .  S
C2010      C2011   1.405       .  A
C2011      C2012   1.400       .  A
C2011      F2016   1.358       .  S
C2012      C2013   1.407       .  A
C2012      H2017   1.081       .  S
C2013      C2014   1.402       .  A
C2014      F2018   1.357       .  S
C2015      C2020   1.409       .  A
C2015      C2024   1.406       .  A
C2020      C2021   1.402       .  A
C2020      F2025   1.357       .  S
C2021      C2022   1.406       .  A
C2021      H2026   1.084       .  S
C2022      C2023   1.404       .  A
C2023      C2024   1.398       .  A
C2023      F2027   1.357       .  S
C2024      H2028   1.083       .  S
C2029      C2030   1.409       .  A
C2029      C2034   1.400       .  A
C2029      H2039   1.083   1_565  S
C2030      C2035   1.480   1_565  S
C2030      C2031   1.401       .  A
C2031      C2032   1.392       .  A
C2031      F2036   1.358       .  S
C2032      C2033   1.408       .  A
C2032      H2037   1.084       .  S
C2033      C2034   1.403       .  A
C2034      F2038   1.357       .  S
C2035      C2040   1.401       .  A
C2035      C2044   1.409       .  A
C2040      C2041   1.392       .  A
C2040      F2045   1.358       .  S
C2041      C2042   1.410       .  A
C2041      H2046   1.084       .  S
C2042      C2043   1.404       .  A
C2043      C2044   1.400       .  A
C2043      F2047   1.357       .  S
C2044      H2048   1.083       .  S
C2049      C2050   1.415       .  A
C2049      C2054   1.410       .  A
C2049      H2059   1.082       .  S
C2050      C2055   1.504       .  S
C2050      C2051   1.408       .  A
C2051      C2052   1.397       .  A
C2051      F2056   1.357       .  S
C2052      C2053   1.406       .  A
C2052      H2057   1.084       .  S
C2053      C2054   1.404       .  A
C2054      F2058   1.357       .  S
C2055      C2060   1.410       .  A
C2055      C2064   1.413       .  A
C2060      C2061   1.401   1_556  A
C2060      F2065   1.357   1_556  S
C2061      C2062   1.406       .  A
C2061      H2066   1.084       .  S
C2062      C2063   1.406   1_554  A
C2063      C2064   1.407       .  A
C2063      F2067   1.357       .  S
C2064      H2068   1.082       .  S
C2069      C2070   1.401       .  A
C2069      C2074   1.399       .  A
C2069      H2079   1.083       .  S
C2070      C2075   1.490       .  S
C2070      C2071   1.410       .  A
C2071      C2072   1.407       .  A
C2071      F2076   1.357       .  S
C2072      C2073   1.407       .  A
C2072      H2077   1.083       .  S
C2073      C2074   1.415       .  A
C2074      F2078   1.358       .  S
C2075      C2080   1.409       .  A
C2075      C2084   1.403       .  A
C2080      C2081   1.405       .  A
C2080      F2085   1.357       .  S
C2081      C2082   1.408       .  A
C2081      H2086   1.083       .  S
C2082      C2083   1.412       .  A
C2083      C2084   1.401       .  A
C2083      F2087   1.357       .  S
C2084      H2088   1.083       .  S
C2089      C2090   1.407       .  A
C2089      C2094   1.403       .  A
C2089      H2099   1.083       .  S
C2090      C2095   1.491       .  S
C2090      C2091   1.406       .  A
C2091      C2092   1.398       .  A
C2091      F2096   1.357       .  S
C2092      C2093   1.409       .  A
C2092      H2097   1.083       .  S
C2093      C2094   1.409       .  A
C2094      F2098   1.357       .  S
C2095      C2100   1.411       .  A
C2095      C2104   1.401       .  A
C2100      C2101   1.405       .  A
C2100      F2105   1.357       .  S
C2101      C2102   1.405       .  A
C2101      H2106   1.083       .  S
C2102      C2103   1.415       .  A
C2103      C2104   1.397       .  A
C2103      F2107   1.358       .  S
C2104      H2108   1.083       .  S
C2109      C2110   1.407       .  A
C2109      C2114   1.403       .  A
C2109      H2119   1.083       .  S
C2110      C2115   1.483       .  S
C2110      C2111   1.402       .  A
C2111      C2112   1.394       .  A
C2111      F2116   1.358       .  S
C2112      C2113   1.410       .  A
C2112      H2117   1.084       .  S
C2113      C2114   1.407       .  A
C2114      F2118   1.356       .  S
C2115      C2120   1.410       .  A
C2115      C2124   1.397       .  A
C2120      C2121   1.403       .  A
C2120      F2125   1.358       .  S
C2121      C2122   1.407       .  A
C2121      H2126   1.083       .  S
C2122      C2123   1.416       .  A
C2123      C2124   1.393       .  A
C2123      F2127   1.357       .  S
C2124      H2128   1.083       .  S
C2129      C2130   1.405       .  A
C2129      C2134   1.400       .  A
C2129      H2139   1.083       .  S
C2130      C2135   1.482   1_655  S
C2130      C2131   1.405       .  A
C2131      C2132   1.400       .  A
C2131      F2136   1.357       .  S
C2132      C2133   1.405       .  A
C2132      H2137   1.084       .  S
C2133      C2134   1.404       .  A
C2134      F2138   1.358       .  S
C2135      C2140   1.403       .  A
C2135      C2144   1.407       .  A
C2140      C2141   1.398       .  A
C2140      F2145   1.358       .  S
C2141      C2142   1.406       .  A
C2141      H2146   1.084       .  S
C2142      C2143   1.404       .  A
C2143      C2144   1.403       .  A
C2143      F2147   1.357       .  S
C2144      H2148   1.083       .  S
C2149      C2150   1.398       .  A
C2149      C2154   1.392       .  A
C2149      H2159   1.084       .  S
C2150      C2155   1.470       .  S
C2150      C2151   1.405       .  A
C2151      C2152   1.397       .  A
C2151      F2156   1.358       .  S
C2152      C2153   1.404       .  A
C2152      H2157   1.083       .  S
C2153      C2154   1.411       .  A
C2154      F2158   1.358       .  S
C2155      C2160   1.405       .  A
C2155      C2164   1.400       .  A
C2160      C2161   1.396       .  A
C2160      F2165   1.358       .  S
C2161      C2162   1.404       .  A
C2161      H2166   1.083       .  S
C2162      C2163   1.408       .  A
C2163      C2164   1.394       .  A
C2163      F2167   1.358       .  S
C2164      H2168   1.083       .  S
C2169      C2170   1.401       .  A
C2169      C2174   1.394       .  A
C2169      H2179   1.083       .  S
C2170      C2175   1.481       .  S
C2170      C2171   1.408       .  A
C2171      C2172   1.401       .  A
C2171      F2176   1.358       .  S
C2172      C2173   1.406       .  A
C2172      H2177   1.083       .  S
C2173      C2174   1.410       .  A
C2174      F2178   1.357       .  S
C2175      C2180   1.403       .  A
C2175      C2184   1.405       .  A
C2180      C2181   1.397       .  A
C2180      F2185   1.358       .  S
C2181      C2182   1.411       .  A
C2181      H2186   1.083       .  S
C2182      C2183   1.409       .  A
C2183      C2184   1.399       .  A
C2183      F2187   1.357       .  S
C2184      H2188   1.083       .  S
C2189      C2190   1.403       .  A
C2189      C2194   1.398       .  A
C2189      H2199   1.084       .  S
C2190      C2195   1.491       .  S
C2190      C2191   1.407       .  A
C2191      C2192   1.406   1_554  A
C2191      F2196   1.357   1_554  S
C2192      C2193   1.411       .  A
C2192      H2197   1.083       .  S
C2193      C2194   1.414   1_556  A
C2194      F2198   1.358       .  S
C2195      C2200   1.410       .  A
C2195      C2204   1.403       .  A
C2200      C2201   1.407       .  A
C2200      F2205   1.357       .  S
C2201      C2202   1.408       .  A
C2201      H2206   1.083       .  S
C2202      C2203   1.412       .  A
C2203      C2204   1.396       .  A
C2203      F2207   1.358       .  S
C2204      H2208   1.083       .  S
C2209      C2210   1.401       .  A
C2209      C2214   1.394       .  A
C2209      H2219   1.083       .  S
C2210      C2215   1.480       .  S
C2210      C2211   1.408       .  A
C2211      C2212   1.402       .  A
C2211      F2216   1.357       .  S
C2212      C2213   1.404       .  A
C2212      H2217   1.083       .  S
C2213      C2214   1.409       .  A
C2214      F2218   1.358       .  S
C2215      C2220   1.404       .  A
C2215      C2224   1.405       .  A
C2220      C2221   1.394       .  A
C2220      F2225   1.358       .  S
C2221      C2222   1.407       .  A
C2221      H2226   1.084       .  S
C2222      C2223   1.408       .  A
C2223      C2224   1.401       .  A
C2223      F2227   1.357       .  S
C2224      H2228   1.083       .  S
C2229      C2230   1.402       .  A
C2229      C2234   1.401       .  A
C2229      H2239   1.083       .  S
C2230      C2235   1.491       .  S
C2230      C2231   1.410       .  A
C2231      C2232   1.403       .  A
C2231      F2236   1.358       .  S
C2232      C2233   1.406       .  A
C2232      H2237   1.083       .  S
C2233      C2234   1.415       .  A
C2234      F2238   1.357       .  S
C2235      C2240   1.405       .  A
C2235      C2244   1.408       .  A
C2240      C2241   1.397       .  A
C2240      F2245   1.358       .  S
C2241      C2242   1.409       .  A
C2241      H2246   1.083       .  S
C2242      C2243   1.411       .  A
C2243      C2244   1.406       .  A
C2243      F2247   1.357       .  S
C2244      H2248   1.083       .  S
C2249      C2250   1.403       .  A
C2249      C2254   1.399       .  A
C2249      H2259   1.083       .  S
C2250      C2255   1.475   1_655  S
C2250      C2251   1.402       .  A
C2251      C2252   1.399       .  A
C2251      F2256   1.357       .  S
C2252      C2253   1.407       .  A
C2252      H2257   1.083       .  S
C2253      C2254   1.405       .  A
C2254      F2258   1.357       .  S
C2255      C2260   1.400       .  A
C2255      C2264   1.406       .  A
C2260      C2261   1.395       .  A
C2260      F2265   1.357       .  S
C2261      C2262   1.406       .  A
C2261      H2266   1.084       .  S
C2262      C2263   1.404       .  A
C2263      C2264   1.403       .  A
C2263      F2267   1.357       .  S
C2264      H2268   1.083       .  S
