geometry optimzed in LAMMPS
_audit_creation_date              2020-11-30 
_audit_creation_method            'lammps2cif' 
_symmetry_space_group_name_H-M    'P1' 
_symmetry_Int_Tables_number       1 
_symmetry_cell_setting            triclinic 
loop_ 
_symmetry_equiv_pos_as_xyz 
  x,y,z 
_cell_length_a                    69.65892995 
_cell_length_b                    69.79564555758921 
_cell_length_c                    42.04662332401755 
_cell_angle_alpha                 89.96934322210478 
_cell_angle_beta                  90.06883572031786 
_cell_angle_gamma                 119.97802505802973 
loop_ 
_atom_site_label 
_atom_site_type_symbol 
_atom_site_fract_x 
_atom_site_fract_y 
_atom_site_fract_z 
_atom_site_charge 
O1          O  0.59983277  0.41234284  0.46952024    -0.88100
C2          C  0.55635076  0.38950849  0.39596605     0.87900
Mg3        Mg  0.58986580  0.40828954  0.51841278     1.58100
O4          O  0.58423470  0.44696060  0.40487403    -0.87800
O5          O  0.62074052  0.43862363  0.43584220    -0.75200
C6          C  0.51839072  0.44454160  0.52352511     0.93000
O7          O  0.55084321  0.37062204  0.46664146    -0.75000
O8          O  0.52280229  0.43102707  0.53750785    -0.82500
Mg9        Mg  0.58401257  0.38347129  0.44021330     1.58000
C10         C  0.54888573  0.48037777  0.40177121     0.92900
O11         O  0.61668493  0.39356408  0.41459402    -0.80800
H12         H  0.61246743  0.47598839  0.40604947    -0.06100
C13         C  0.52280809  0.41435026  0.44687942     0.87800
O14         O  0.59669240  0.44420320  0.51938136    -0.75300
O15         O  0.57517710  0.40057171  0.40719980    -0.88000
O16         O  0.55253030  0.46711285  0.38550967    -0.80800
C17         C  0.57137444  0.42881978  0.32397328     0.93000
C18         C  0.62768414  0.40360415  0.38988105     0.92900
Mg19       Mg  0.55756131  0.46063789  0.46703196     1.58000
O20         O  0.52691664  0.45309725  0.49674147    -0.80800
O21         O  0.58979576  0.47302962  0.43880581    -0.75000
O22         O  0.58517071  0.42481278  0.33843038    -0.80800
O23         O  0.59212088  0.36396380  0.47383081    -0.82500
O24         O  0.55755331  0.41955210  0.56876659    -0.80900
C25         C  0.59605765  0.46575087  0.41574412     0.87300
O26         O  0.56704516  0.44318698  0.49986654    -0.88000
O27         O  0.54072594  0.43067396  0.43958209    -0.88100
O28         O  0.51974869  0.40514592  0.47393089    -0.75200
Mg29       Mg  0.60160125  0.43081083  0.38841499     1.58000
O30         O  0.55943602  0.43479749  0.33907055    -0.82500
H31         H  0.63022982  0.43664114  0.48079729    -0.06300
O32         O  0.55627603  0.39566909  0.50263310    -0.87800
H33         H  0.52756075  0.36724356  0.49865572    -0.06100
H34         H  0.59294450  0.47117810  0.51586820    -0.06300
C35         C  0.54430644  0.37741527  0.49008050     0.87300
C36         C  0.61746835  0.42927351  0.46286614     0.87900
C37         C  0.58567141  0.45358688  0.51200611     0.87900
H38         H  0.50963935  0.40735974  0.42949221    -0.06300
O39         O  0.54420918  0.39790490  0.39043394    -0.75300
Mg40       Mg  0.54038544  0.41319987  0.51977930     1.58000
H41         H  0.54968944  0.37199713  0.39208440    -0.06300
C42         C  0.58939348  0.36059634  0.50354500     0.92900
O43         O  0.58020559  0.40568493  0.57059175    -0.82500
C44         C  0.56974900  0.41399392  0.58430074     0.93000
O45         O  0.62198951  0.41492101  0.37249906    -0.82500
Mg46       Mg  0.55020879  0.43322425  0.39065311     1.58200
O47         O  0.58588352  0.37320398  0.52164879    -0.80800
O48         O  0.54779605  0.47935890  0.43202701    -0.82500
O49         O  0.57666834  0.39194931  0.93685105    -0.88100
C50         C  0.60053525  0.43178867  0.01394074     0.87900
Mg51       Mg  0.58297630  0.40434850  0.88897664     1.58100
O52         O  0.54344370  0.40842992  0.00194418    -0.87800
O53         O  0.54882889  0.37097744  0.96824417    -0.75200
C54         C  0.55388463  0.48131006  0.88892532     0.93000
O55         O  0.62041475  0.43896780  0.94377866    -0.75000
O56         O  0.56627811  0.47579490  0.87402780    -0.82500
Mg57       Mg  0.60486831  0.40459810  0.96761920     1.58000
C58         C  0.51489504  0.44776112  0.00847132     0.92900
O59         O  0.59289625  0.37114652  0.99203942    -0.80800
H60         H  0.51331694  0.38176211  0.99796690    -0.06100
C61         C  0.58094368  0.47117997  0.96495406     0.87800
O62         O  0.54797743  0.40021520  0.88654424    -0.75300
O63         O  0.58843522  0.41377449  0.00107968    -0.88000
O64         O  0.52712779  0.44224692  0.02388521    -0.80800
C65         C  0.55950505  0.41653008  0.08389991     0.93000
C66         C  0.58196633  0.35996656  0.01616935     0.92900
Mg67       Mg  0.53439854  0.44004048  0.94216712     1.58000
O68         O  0.54526414  0.47269089  0.91568401    -0.80800
O69         O  0.51904630  0.40644288  0.96721672    -0.75000
O70         O  0.56196311  0.40217353  0.06837078    -0.80800
O71         O  0.62349116  0.39558934  0.93360787    -0.82500
O72         O  0.57631821  0.44077773  0.83963770    -0.80900
C73         C  0.52478772  0.39831769  0.98983701     0.87300
O74         O  0.55086303  0.43007014  0.90817431    -0.88000
O75         O  0.56390018  0.45351313  0.97084694    -0.88100
O76         O  0.59037116  0.47490498  0.93798978    -0.75200
Mg77       Mg  0.55661513  0.38815248  0.01715505     1.58000
O78         O  0.55610504  0.43077766  0.07001662    -0.82500
H79         H  0.55124410  0.36303806  0.92256664    -0.06300
O80         O  0.59719289  0.43742074  0.90711321    -0.87800
H81         H  0.62663036  0.46451864  0.91438322    -0.06100
H82         H  0.52239959  0.40628627  0.88970214    -0.06300
C83         C  0.61521015  0.44760348  0.92109907     0.87300
C84         C  0.55882646  0.37481243  0.94169752     0.87900
C85         C  0.53970062  0.41214555  0.89448290     0.87900
H86         H  0.58827257  0.48354376  0.98339880    -0.06300
O87         O  0.59374700  0.44516800  0.02009182    -0.75300
Mg88       Mg  0.58212759  0.45596309  0.89050475     1.58000
H89         H  0.61765958  0.43672786  0.01858779    -0.06300
C90         C  0.62813098  0.40020273  0.90447983     0.92900
O91         O  0.58819098  0.41649579  0.83818307    -0.82500
C92         C  0.58196044  0.42861868  0.82416837     0.93000
O93         O  0.56982241  0.36537030  0.03204216    -0.82500
Mg94       Mg  0.55958096  0.44204517  0.01902298     1.58200
O95         O  0.61726432  0.40630267  0.88677571    -0.80800
O96         O  0.51643423  0.45010824  0.97835935    -0.82500
O97         O  0.39792090  0.58307643  0.22108547    -0.88100
C98         C  0.43781484  0.60578662  0.14400150     0.87900
Mg99       Mg  0.40987157  0.58887673  0.26900204     1.58100
O100        O  0.41340203  0.54893084  0.15548331    -0.87800
O101        O  0.37659309  0.55509534  0.19004621    -0.75200
C102        C  0.48409298  0.55597725  0.27177658     0.93000
O103        O  0.44576747  0.62589106  0.21364113    -0.75000
O104        O  0.47913138  0.56936633  0.28479222    -0.82500
Mg105      Mg  0.41136389  0.61112211  0.19009490     1.58000
C106        C  0.45215900  0.51934572  0.14888834     0.92900
O107        O  0.37772740  0.59939923  0.16693967    -0.80800
H108        H  0.38654572  0.51889160  0.15837152    -0.06100
C109        C  0.47657988  0.58477451  0.19307624     0.87800
O110        O  0.40492996  0.55354708  0.27072446    -0.75300
O111        O  0.41964472  0.59405981  0.15678576    -0.88000
O112        O  0.44611103  0.53097778  0.13296513    -0.80800
C113        C  0.42136593  0.56568268  0.07375251     0.93000
C114        C  0.36517809  0.58797164  0.14421078     0.92900
Mg115      Mg  0.44429598  0.53848966  0.21548187     1.58000
O116        O  0.47612359  0.54731499  0.24467180    -0.80800
O117        O  0.41103361  0.52399256  0.18925940    -0.75000
O118        O  0.40726277  0.56820448  0.08992974    -0.80800
O119        O  0.40349276  0.63058109  0.22367562    -0.82500
O120        O  0.44471304  0.58033029  0.31682990    -0.80900
C121        C  0.40307843  0.53014580  0.16691943     0.87300
O122        O  0.43435990  0.55539943  0.24895080    -0.88000
O123        O  0.45875217  0.56800520  0.18677279    -0.88100
O124        O  0.48015894  0.59416661  0.22007297    -0.75200
Mg125      Mg  0.39330628  0.56258689  0.14097635     1.58000
O126        O  0.43525550  0.56139632  0.08704452    -0.82500
H127        H  0.36890532  0.55796082  0.23564527    -0.06300
O128        O  0.44309062  0.60242447  0.25063339    -0.87800
H129        H  0.47090370  0.63126603  0.24348570    -0.06100
H130        H  0.40980498  0.52725990  0.26695238    -0.06300
C131        C  0.45387576  0.62032406  0.23661469     0.87300
C132        C  0.38061950  0.56532905  0.21640751     0.87900
C133        C  0.41627662  0.54467149  0.26246394     0.87900
H134        H  0.48923023  0.59189269  0.17497441    -0.06300
O135        O  0.45087275  0.59856962  0.13786838    -0.75300
Mg136      Mg  0.46063925  0.58628350  0.26711857     1.58000
H137        H  0.44321859  0.62300006  0.13949646    -0.06300
C138        C  0.40710970  0.63489091  0.25305404     0.92900
O139        O  0.42115269  0.59290832  0.32068200    -0.82500
C140        C  0.43233037  0.58503771  0.33345109     0.93000
O141        O  0.36997281  0.57580125  0.12719225    -0.82500
Mg142      Mg  0.44692405  0.56413552  0.13827341     1.58200
O143        O  0.41211072  0.62341658  0.27137307    -0.80800
O144        O  0.45460233  0.52103377  0.17902716    -0.82500
O145        O  0.39253455  0.57792683  0.71830357    -0.88100
C146        C  0.43574957  0.60110572  0.64446311     0.87900
Mg147      Mg  0.40228358  0.58245269  0.76692059     1.58100
O148        O  0.40965596  0.54370863  0.65377442    -0.87800
O149        O  0.37243822  0.55070158  0.68535964    -0.75200
C150        C  0.47618337  0.54910288  0.77374026     0.93000
O151        O  0.44123674  0.62030315  0.71532457    -0.75000
O152        O  0.47035072  0.56153532  0.78768627    -0.82500
Mg153      Mg  0.40802799  0.60663926  0.68879346     1.58000
C154        C  0.44671161  0.51236636  0.65146208     0.92900
O155        O  0.37548789  0.59559347  0.66332458    -0.80800
H156        H  0.38216905  0.51404161  0.65436966    -0.06100
C157        C  0.47069923  0.57814738  0.69650495     0.87800
O158        O  0.39633045  0.54674069  0.76817921    -0.75300
O159        O  0.41719299  0.58954141  0.65622243    -0.88000
O160        O  0.44281238  0.52544445  0.63508355    -0.80800
C161        C  0.42106440  0.56140218  0.57255255     0.93000
C162        C  0.36406729  0.58492852  0.63928277     0.92900
Mg163      Mg  0.43700909  0.53155293  0.71655332     1.58000
O164        O  0.46806789  0.54037932  0.74677968    -0.80800
O165        O  0.40481672  0.51795599  0.68786674    -0.75000
O166        O  0.40695567  0.56447815  0.58778705    -0.80800
O167        O  0.39943821  0.62634878  0.72180992    -0.82500
O168        O  0.43479946  0.57230049  0.81852817    -0.80900
C169        C  0.39835389  0.52478392  0.66446236     0.87300
O170        O  0.42636913  0.54835551  0.74913879    -0.88000
O171        O  0.45314935  0.56151919  0.68871680    -0.88100
O172        O  0.47321620  0.58703876  0.72372755    -0.75200
Mg173      Mg  0.39115383  0.55871272  0.63781552     1.58000
O174        O  0.43442207  0.55675515  0.58680226    -0.82500
H175        H  0.36273754  0.55277932  0.73005949    -0.06300
O176        O  0.43598157  0.59555983  0.75169742    -0.87800
H177        H  0.46447329  0.62420739  0.74785486    -0.06100
H178        H  0.40066627  0.52010483  0.76480884    -0.06300
C179        C  0.44781050  0.61380576  0.73908081     0.87300
C180        C  0.37535194  0.56041753  0.71199391     0.87900
C181        C  0.40767774  0.53766282  0.76097255     0.87900
H182        H  0.48404614  0.58561099  0.67947666    -0.06300
O183        O  0.44847304  0.59343116  0.63871613    -0.75300
Mg184      Mg  0.45227099  0.57863343  0.76942471     1.58000
H185        H  0.44168311  0.61846779  0.64032198    -0.06300
C186        C  0.40197107  0.62987886  0.75151136     0.92900
O187        O  0.41155512  0.58542556  0.81864851    -0.82500
C188        C  0.42237349  0.57794144  0.83333042     0.93000
O189        O  0.36952661  0.57336140  0.62208688    -0.82500
Mg190      Mg  0.44380884  0.55866553  0.63931362     1.58200
O191        O  0.40570148  0.61752711  0.76993423    -0.80800
O192        O  0.44758023  0.51335387  0.68174110    -0.82500
O193        O  0.18616221  0.60810650  0.06079154    -0.88100
C194        C  0.16857231  0.56786645  0.98362540     0.87900
Mg195      Mg  0.18004404  0.59578041  0.10868236     1.58100
O196        O  0.13535086  0.59168057  0.99542571    -0.87800
O197        O  0.17863686  0.62877987  0.02960739    -0.75200
C198        C  0.07356833  0.51993895  0.11175451     0.93000
O199        O  0.18171209  0.56044220  0.05333087    -0.75000
O200        O  0.09208686  0.52513751  0.12445489    -0.82500
Mg201      Mg  0.20076522  0.59468899  0.02954928     1.58000
C202        C  0.06698455  0.55186286  0.99019577     0.92900
O203        O  0.22249796  0.62801682  0.00546220    -0.80800
H204        H  0.13166760  0.61822598  0.99867818    -0.06100
C205        C  0.10951297  0.52897261  0.03280997     0.87800
O206        O  0.14945794  0.60048860  0.11087454    -0.75300
O207        O  0.17483664  0.58592166  0.99658136    -0.88000
O208        O  0.08448438  0.55792400  0.97380904    -0.80800
C209        C  0.14373166  0.58362856  0.91348042     0.93000
C210        C  0.22291306  0.63975065  0.98199511     0.92900
Mg211      Mg  0.09481576  0.56054122  0.05627020     1.58000
O212        O  0.07250233  0.52855059  0.08542055    -0.80800
O213        O  0.11293000  0.59376792  0.02988483    -0.75000
O214        O  0.16031983  0.59779784  0.92963685    -0.80800
O215        O  0.22858159  0.60294653  0.06300893    -0.82500
O216        O  0.13696374  0.55924009  0.15702032    -0.80900
C217        C  0.12674759  0.60179523  0.00720813     0.87300
O218        O  0.12185285  0.57078410  0.08961660    -0.88000
O219        O  0.11014604  0.54661678  0.02689930    -0.88100
O220        O  0.11570931  0.52547705  0.05953360    -0.75200
Mg221      Mg  0.16907201  0.61182625  0.98064806     1.58000
O222        O  0.12568145  0.56939458  0.92668738    -0.82500
H223        H  0.18954968  0.63696189  0.07502788    -0.06300
O224        O  0.16059099  0.56287792  0.08988759    -0.87800
H225        H  0.16228220  0.53539005  0.08335712    -0.06100
H226        H  0.11807411  0.59522131  0.10761879    -0.06300
C227        C  0.16804581  0.55228255  0.07623073     0.87300
C228        C  0.18524437  0.62513717  0.05595064     0.87900
C229        C  0.12914936  0.58889956  0.10300050     0.87900
H230        H  0.10408965  0.51644866  0.01454440    -0.06300
O231        O  0.14832008  0.55474585  0.97739382    -0.75300
Mg232      Mg  0.12719818  0.54461317  0.10669433     1.58000
H233        H  0.18053147  0.56265277  0.97893129    -0.06300
C234        C  0.22875369  0.59822248  0.09209114     0.92900
O235        O  0.17286182  0.58371560  0.16013690    -0.82500
C236        C  0.15424719  0.57128041  0.17345862     0.93000
O237        O  0.20540056  0.63473415  0.96612116    -0.82500
Mg238      Mg  0.11740374  0.55808667  0.97831829     1.58200
O239        O  0.21218312  0.59311388  0.11027385    -0.80800
O240        O  0.06673812  0.54978381  0.02035894    -0.82500
O241        O  0.18785468  0.60832122  0.55992312    -0.88100
C242        C  0.16919589  0.56467762  0.48704508     0.87900
Mg243      Mg  0.18161141  0.59800580  0.60850327     1.58100
O244        O  0.13728264  0.59033335  0.49339911    -0.87800
O245        O  0.18084249  0.62803768  0.52603774    -0.75200
C246        C  0.07442556  0.52406677  0.61321820     0.93000
O247        O  0.18269549  0.56009696  0.55804788    -0.75000
O248        O  0.09281783  0.52943186  0.62653331    -0.82500
Mg249      Mg  0.20201052  0.59324515  0.53144035     1.58000
C250        C  0.06875894  0.55280509  0.48879459     0.92900
O251        O  0.22359027  0.62529392  0.50542124    -0.80800
H252        H  0.13464530  0.61755520  0.49315891    -0.06100
C253        C  0.11001944  0.52932254  0.53608123     0.87800
O254        O  0.15166800  0.60379365  0.60826223    -0.75300
O255        O  0.17603442  0.58339876  0.49806197    -0.88000
O256        O  0.08598570  0.55712615  0.47265065    -0.80800
C257        C  0.14541877  0.57832403  0.41318918     0.93000
C258        C  0.22462755  0.63644603  0.48094426     0.92900
Mg259      Mg  0.09652864  0.56281152  0.55514835     1.58000
O260        O  0.07361030  0.53215823  0.58629381    -0.80800
O261        O  0.11543428  0.59481207  0.52614874    -0.75000
O262        O  0.16219369  0.59289160  0.42866225    -0.80800
O263        O  0.22999086  0.60301690  0.56542695    -0.82500
O264        O  0.13811948  0.56482021  0.65765761    -0.80900
C265        C  0.12922639  0.60143477  0.50337516     0.87300
O266        O  0.12359955  0.57368283  0.58856601    -0.88000
O267        O  0.11090778  0.54682024  0.52826636    -0.88100
O268        O  0.11631107  0.52682950  0.56336035    -0.75200
Mg269      Mg  0.17108732  0.60908958  0.47852951     1.58000
O270        O  0.12714984  0.56510550  0.42684560    -0.82500
H271        H  0.19181224  0.63792838  0.57106926    -0.06300
O272        O  0.16150863  0.56461939  0.59216203    -0.87800
H273        H  0.16271868  0.53662603  0.58976410    -0.06100
H274        H  0.12063779  0.59928325  0.60356845    -0.06300
C275        C  0.16878389  0.55317118  0.58074970     0.87300
C276        C  0.18730810  0.62531389  0.55311602     0.87900
C277        C  0.13133989  0.59235413  0.60036973     0.87900
H278        H  0.10434979  0.51605040  0.51896574    -0.06300
O279        O  0.14885587  0.55185123  0.48085934    -0.75300
Mg280      Mg  0.12809141  0.54778593  0.60888082     1.58000
H281        H  0.18070696  0.55869410  0.48398822    -0.06300
C282        C  0.22964489  0.59865675  0.59474493     0.92900
O283        O  0.17426265  0.58837386  0.66055274    -0.82500
C284        C  0.15540255  0.57731392  0.67382464     0.93000
O285        O  0.20753859  0.63094826  0.46379849    -0.82500
Mg286      Mg  0.11845812  0.55618541  0.47908652     1.58200
O287        O  0.21289589  0.59388292  0.61233610    -0.80800
O288        O  0.06846758  0.55173031  0.51909223    -0.82500
O289        O  0.81377841  0.39815687  0.30937684    -0.88100
C290        C  0.83348014  0.44075221  0.23475937     0.87900
Mg291      Mg  0.82014295  0.40957770  0.35768414     1.58100
O292        O  0.86478946  0.41464128  0.24449351    -0.87800
O293        O  0.82070547  0.37774754  0.27681164    -0.75200
C294        C  0.92791055  0.48337194  0.36141816     0.93000
O295        O  0.81913601  0.44638798  0.30500500    -0.75000
O296        O  0.90954394  0.47853346  0.37436104    -0.82500
Mg297      Mg  0.79983038  0.41280304  0.27929284     1.58000
C298        C  0.93329962  0.45068040  0.23982366     0.92900
O299        O  0.77798284  0.38008406  0.25350080    -0.80800
H300        H  0.86673059  0.38704691  0.24628817    -0.06100
C301        C  0.89243691  0.47651718  0.28354884     0.87800
O302        O  0.85017580  0.40395244  0.35887864    -0.75300
O303        O  0.82622569  0.42219262  0.24663257    -0.88000
O304        O  0.91618049  0.44670848  0.22368671    -0.80800
C305        C  0.85737062  0.42524892  0.16291902     0.93000
C306        C  0.77761849  0.36917261  0.22901694     0.92900
Mg307      Mg  0.90555351  0.44312577  0.30559862     1.58000
O308        O  0.92860171  0.47453432  0.33513588    -0.80800
O309        O  0.88626055  0.41041876  0.27838355    -0.75000
O310        O  0.84034506  0.41165340  0.17879205    -0.80800
O311        O  0.77172091  0.40360229  0.31289462    -0.82500
O312        O  0.86405721  0.44404726  0.40640451    -0.80900
C313        C  0.87247561  0.40347450  0.25556294     0.87300
O314        O  0.87845549  0.43350494  0.33847598    -0.88000
O315        O  0.89159467  0.45884966  0.27696590    -0.88100
O316        O  0.88594877  0.47963605  0.31026919    -0.75200
Mg317      Mg  0.83113438  0.39614512  0.22884576     1.58000
O318        O  0.87591769  0.43789931  0.17634288    -0.82500
H319        H  0.80936757  0.36857979  0.32185776    -0.06300
O320        O  0.84037682  0.44269067  0.34008920    -0.87800
H321        H  0.83908147  0.47056815  0.33593750    -0.06100
H322        H  0.88113252  0.40815099  0.35538675    -0.06300
C323        C  0.83306544  0.45384418  0.32772403     0.87300
C324        C  0.81415038  0.38095908  0.30348163     0.87900
C325        C  0.87054702  0.41510730  0.35120140     0.87900
H326        H  0.89818809  0.48937331  0.26575892    -0.06300
O327        O  0.85388702  0.45304857  0.22835785    -0.75300
Mg328      Mg  0.87407075  0.45988842  0.35680498     1.58000
H329        H  0.82227883  0.44702954  0.23088748    -0.06300
C330        C  0.77131723  0.40724086  0.34236215     0.92900
O331        O  0.82775586  0.42070249  0.40936330    -0.82500
C332        C  0.84664085  0.43202388  0.42258865     0.93000
O333        O  0.79510009  0.37473288  0.21291217    -0.82500
Mg334      Mg  0.88410168  0.44824870  0.22830485     1.58200
O335        O  0.78801728  0.41263334  0.36050455    -0.80800
O336        O  0.93373463  0.45249506  0.27005798    -0.82500
O337        O  0.81223302  0.39506581  0.80826251    -0.88100
C338        C  0.83345531  0.43841884  0.73436776     0.87900
Mg339      Mg  0.81787981  0.40553080  0.85692843     1.58100
O340        O  0.86428071  0.41181153  0.74354440    -0.87800
O341        O  0.81988223  0.37510331  0.77573148    -0.75200
C342        C  0.92558437  0.47795411  0.86316582     0.93000
O343        O  0.81913115  0.44407997  0.80408821    -0.75000
O344        O  0.90706063  0.47290487  0.87562058    -0.82500
Mg345      Mg  0.79963021  0.41088864  0.77785674     1.58000
C346        C  0.93317273  0.44880092  0.74034348     0.92900
O347        O  0.77725584  0.37853381  0.75165013    -0.80800
H348        H  0.86628749  0.38423294  0.74400401    -0.06100
C349        C  0.89149538  0.47290728  0.78456961     0.87800
O350        O  0.84764312  0.39940815  0.85823839    -0.75300
O351        O  0.82614138  0.41981315  0.74607165    -0.88000
O352        O  0.91612896  0.44420564  0.72348840    -0.80800
C353        C  0.85689674  0.42361533  0.66254761     0.93000
C354        C  0.77696898  0.36746760  0.72744558     0.92900
Mg355      Mg  0.90407041  0.43906498  0.80576211     1.58000
O356        O  0.92666693  0.46979775  0.83649043    -0.80800
O357        O  0.88534268  0.40686890  0.77724825    -0.75000
O358        O  0.84010743  0.40976180  0.67854853    -0.80800
O359        O  0.77176248  0.40281647  0.81039503    -0.82500
O360        O  0.86123088  0.43910271  0.90685362    -0.80900
C361        C  0.87186741  0.40042475  0.75407001     0.87300
O362        O  0.87628755  0.42882245  0.83819810    -0.88000
O363        O  0.89073865  0.45537494  0.77735300    -0.88100
O364        O  0.88467344  0.47552669  0.81133842    -0.75200
Mg365      Mg  0.83065612  0.39367154  0.72802023     1.58000
O366        O  0.87553492  0.43615897  0.67592701    -0.82500
H367        H  0.80784413  0.36544258  0.82033755    -0.06300
O368        O  0.83869150  0.43888412  0.84034692    -0.87800
H369        H  0.83848199  0.46733164  0.83648966    -0.06100
H370        H  0.87836910  0.40302051  0.85463320    -0.06300
C371        C  0.83223072  0.45068535  0.82777158     0.87300
C372        C  0.81280811  0.37798424  0.80218326     0.87900
C373        C  0.86804770  0.41028894  0.85058957     0.87900
H374        H  0.89748941  0.48610442  0.76729428    -0.06300
O375        O  0.85388597  0.45075190  0.72831506    -0.75300
Mg376      Mg  0.87206445  0.45520918  0.85738908     1.58000
H377        H  0.82228392  0.44473291  0.73048137    -0.06300
C378        C  0.77023153  0.40552227  0.83989848     0.92900
O379        O  0.82493976  0.41555494  0.90922263    -0.82500
C380        C  0.84370375  0.42689852  0.92278300     0.93000
O381        O  0.79460998  0.37247015  0.71207486    -0.82500
Mg382      Mg  0.88380271  0.44564015  0.72826049     1.58200
O383        O  0.78596725  0.40911055  0.85910118    -0.80800
O384        O  0.93287503  0.44976723  0.77065932    -0.82500
O385        O  0.60569073  0.18590023  0.11093318    -0.88100
C386        C  0.56378359  0.17044599  0.18541735     0.87900
Mg387      Mg  0.59462479  0.17833651  0.06271695     1.58100
O388        O  0.58867243  0.13776900  0.17991979    -0.87800
O389        O  0.62616124  0.18004446  0.14491165    -0.75200
C390        C  0.52047115  0.07103380  0.06469903     0.93000
O391        O  0.55772511  0.18091932  0.11343524    -0.75000
O392        O  0.52544601  0.08877456  0.04969442    -0.82500
Mg393      Mg  0.59150029  0.20122075  0.13869284     1.58000
C394        C  0.55062565  0.06992732  0.18923475     0.92900
O395        O  0.62432041  0.22376642  0.16321402    -0.80800
H396        H  0.61592616  0.13512184  0.18013985    -0.06100
C397        C  0.52666839  0.10946709  0.13882291     0.87800
O398        O  0.60021103  0.14836601  0.06456356    -0.75300
O399        O  0.58225142  0.17662925  0.17383722    -0.88000
O400        O  0.55439126  0.08744881  0.20382594    -0.80800
C401        C  0.57908400  0.14750386  0.25968800     0.93000
C402        C  0.63578711  0.22528091  0.18760532     0.92900
Mg403      Mg  0.56004956  0.09539386  0.12100318     1.58000
O404        O  0.52870980  0.07152921  0.09203621    -0.80800
O405        O  0.59264122  0.11511280  0.14828744    -0.75000
O406        O  0.59315516  0.16432161  0.24380459    -0.80800
O407        O  0.60068420  0.22787306  0.10309060    -0.82500
O408        O  0.56037215  0.13344327  0.01527576    -0.80900
C409        C  0.59960617  0.12942615  0.17034059     0.87300
O410        O  0.57019874  0.12106267  0.08565186    -0.88000
O411        O  0.54443568  0.11087203  0.14664023    -0.88100
O412        O  0.52358799  0.11453065  0.11101458    -0.75200
Mg413      Mg  0.60812576  0.17183046  0.19303115     1.58000
O414        O  0.56517719  0.12946062  0.24629918    -0.82500
H415        H  0.63511890  0.18951992  0.09917807    -0.06300
O416        O  0.56118459  0.15882019  0.07967593    -0.87800
H417        H  0.53326554  0.16015871  0.08343754    -0.06100
H418        H  0.59545145  0.11741819  0.07076685    -0.06300
C419        C  0.55009763  0.16641709  0.09147385     0.87300
C420        C  0.62286357  0.18559922  0.11752592     0.87900
C421        C  0.58870534  0.12830537  0.07342762     0.87900
H422        H  0.51365820  0.10435678  0.15629009    -0.06300
O423        O  0.55071302  0.15035810  0.19238499    -0.75300
Mg424      Mg  0.54395936  0.12481095  0.06484876     1.58000
H425        H  0.55819240  0.18228073  0.18817901    -0.06300
C426        C  0.59612683  0.22696543  0.07379101     0.92900
O427        O  0.58437462  0.16949993  0.01125434    -0.82500
C428        C  0.57283049  0.15049326  0.99865339     0.93000
O429        O  0.63070574  0.20860276  0.20542632    -0.82500
Mg430      Mg  0.55460722  0.11983996  0.19525834     1.58200
O431        O  0.59086248  0.20977214  0.05698055    -0.80800
O432        O  0.55008278  0.06866225  0.15896990    -0.82500
O433        O  0.60560147  0.18596498  0.61372055    -0.88100
C434        C  0.56293838  0.16539962  0.68758867     0.87900
Mg435      Mg  0.59526824  0.17983933  0.56536368     1.58100
O436        O  0.59081552  0.13584800  0.67738923    -0.87800
O437        O  0.62714953  0.18061483  0.64615329    -0.75200
C438        C  0.52397590  0.07262961  0.55864419     0.93000
O439        O  0.55665895  0.17883524  0.61728575    -0.75000
O440        O  0.52883740  0.09090955  0.54553893    -0.82500
Mg441      Mg  0.59008876  0.19920749  0.64313166     1.58000
C442        C  0.55586101  0.06712321  0.68077755     0.92900
O443        O  0.62275168  0.22166306  0.66811409    -0.80800
H444        H  0.61893887  0.13480793  0.67548078    -0.06100
C445        C  0.52878025  0.10657987  0.63690648     0.87800
O446        O  0.60239869  0.15095999  0.56421513    -0.75300
O447        O  0.58170220  0.17331541  0.67605850    -0.88000
O448        O  0.55985668  0.08410865  0.69719885    -0.80800
C449        C  0.57972814  0.14167153  0.75889464     0.93000
C450        C  0.63451448  0.22284009  0.69200251     0.92900
Mg451      Mg  0.56322757  0.09509088  0.61551750     1.58000
O452        O  0.53195805  0.07172709  0.58562468    -0.80800
O453        O  0.59575915  0.11496756  0.64333123    -0.75000
O454        O  0.59300300  0.15931794  0.74384820    -0.80800
O455        O  0.59814812  0.22690591  0.60942732    -0.82500
O456        O  0.56201056  0.13692715  0.51465805    -0.80900
C457        C  0.60241689  0.12869583  0.66619893     0.87300
O458        O  0.57261564  0.12210005  0.58286370    -0.88000
O459        O  0.54680882  0.10827804  0.64387514    -0.88100
O460        O  0.52549814  0.11272991  0.60999501    -0.75200
Mg461      Mg  0.60854222  0.16945266  0.69366207     1.58000
O462        O  0.56722617  0.12353523  0.74452356    -0.82500
H463        H  0.63591733  0.19236611  0.60123575    -0.06300
O464        O  0.56184143  0.15885980  0.58166239    -0.87800
H465        H  0.53311296  0.15859322  0.58578999    -0.06100
H466        H  0.59873734  0.12026953  0.56715070    -0.06300
C467        C  0.54992887  0.16524414  0.59416517     0.87300
C468        C  0.62343061  0.18683340  0.61958299     0.87900
C469        C  0.59135115  0.13049295  0.57105123     0.87900
H470        H  0.51569478  0.10024188  0.65440056    -0.06300
O471        O  0.55101144  0.14487066  0.69323207    -0.75300
Mg472      Mg  0.54585392  0.12574522  0.56399113     1.58000
H473        H  0.55612617  0.17611636  0.69167190    -0.06300
C474        C  0.59421290  0.22653139  0.57994312     0.92900
O475        O  0.58586509  0.17307974  0.51352264    -0.82500
C476        C  0.57437688  0.15468481  0.49939520     0.93000
O477        O  0.62943302  0.20585122  0.70910740    -0.82500
Mg478      Mg  0.55709285  0.11554692  0.69274069     1.58200
O479        O  0.59012933  0.21009598  0.56226259    -0.80800
O480        O  0.55409908  0.06694266  0.65059895    -0.82500
O481        O  0.39671597  0.81344427  0.35965703    -0.88100
C482        C  0.44046962  0.83022702  0.43209174     0.87900
Mg483      Mg  0.40704900  0.81999425  0.31114862     1.58100
O484        O  0.41628819  0.86362290  0.42603260    -0.87800
O485        O  0.37739464  0.82075785  0.39369568    -0.75200
C486        C  0.48300960  0.92632354  0.30740518     0.93000
O487        O  0.44451139  0.81739090  0.36071287    -0.75000
O488        O  0.47690385  0.90805534  0.29335285    -0.82500
Mg489      Mg  0.41133023  0.79842393  0.38755683     1.58000
C490        C  0.45622334  0.93156734  0.43281699     0.92900
O491        O  0.37932098  0.77702025  0.41432590    -0.80800
H492        H  0.38955311  0.86717073  0.42718473    -0.06100
C493        C  0.47727521  0.88984900  0.38327463     0.87800
O494        O  0.40228559  0.85053902  0.31197502    -0.75300
O495        O  0.42183637  0.82412636  0.42114389    -0.88000
O496        O  0.45116609  0.91382062  0.44785253    -0.80800
C497        C  0.42758058  0.85447499  0.50616328     0.93000
C498        C  0.36896323  0.77667760  0.43936496     0.92900
Mg499      Mg  0.44459810  0.90473491  0.36562086     1.58000
O500        O  0.47567947  0.92708203  0.33495857    -0.80800
O501        O  0.41246475  0.88639996  0.39439564    -0.75000
O502        O  0.41286138  0.83811214  0.49036638    -0.80800
O503        O  0.40075403  0.77072376  0.35314313    -0.82500
O504        O  0.44047960  0.86354139  0.26189896    -0.80900
C505        C  0.40557518  0.87229960  0.41674776     0.87300
O506        O  0.43287061  0.87801644  0.33160312    -0.88000
O507        O  0.45986875  0.88907143  0.39145421    -0.88100
O508        O  0.47955835  0.88385680  0.35569368    -0.75200
Mg509      Mg  0.39678358  0.83001611  0.44078387     1.58000
O510        O  0.44139000  0.87253282  0.49262706    -0.82500
H511        H  0.36718386  0.80990851  0.34872758    -0.06300
O512        O  0.44064272  0.83928999  0.32717343    -0.87800
H513        H  0.46828304  0.83731455  0.32929783    -0.06100
H514        H  0.40757819  0.88176912  0.31709160    -0.06300
C515        C  0.45176251  0.83152978  0.33831560     0.87300
C516        C  0.37985363  0.81421887  0.36658558     0.87900
C517        C  0.41415431  0.87074838  0.32001754     0.87900
H518        H  0.49062518  0.89518760  0.40023942    -0.06300
O519        O  0.45390754  0.85036635  0.43826663    -0.75300
Mg520      Mg  0.45806001  0.87278604  0.31054938     1.58000
H521        H  0.44585122  0.81823690  0.43498272    -0.06300
C522        C  0.40430952  0.77107071  0.32355952     0.92900
O523        O  0.41702990  0.82728673  0.25943545    -0.82500
C524        C  0.42811099  0.84605040  0.24608840     0.93000
O525        O  0.37468711  0.79409365  0.45566395    -0.82500
Mg526      Mg  0.45056838  0.88118887  0.44050135     1.58200
O527        O  0.40961956  0.78810810  0.30644552    -0.80800
O528        O  0.45653769  0.93248359  0.40250719    -0.82500
O529        O  0.40203585  0.81479079  0.85863240    -0.88100
C530        C  0.44281403  0.83259600  0.93478384     0.87900
Mg531      Mg  0.41425618  0.82122592  0.81093232     1.58100
O532        O  0.41788926  0.86489124  0.92433562    -0.87800
O533        O  0.38106773  0.82173229  0.89001345    -0.75200
C534        C  0.48864649  0.92877535  0.81015704     0.93000
O535        O  0.44974664  0.81925797  0.86507191    -0.75000
O536        O  0.48407395  0.91079730  0.79612632    -0.82500
Mg537      Mg  0.41540854  0.79992083  0.88920542     1.58000
C538        C  0.45590407  0.93336012  0.93166092     0.92900
O539        O  0.38170489  0.77835919  0.91289813    -0.80800
H540        H  0.39066710  0.86754588  0.92179346    -0.06100
C541        C  0.48069202  0.89226693  0.88726639     0.87800
O542        O  0.40921115  0.85159376  0.80933100    -0.75300
O543        O  0.42441698  0.82579511  0.92242454    -0.88000
O544        O  0.45051409  0.91581023  0.94755562    -0.80800
C545        C  0.42617825  0.85624703  0.00614357     0.93000
C546        C  0.36995604  0.77788142  0.93637230     0.92900
Mg547      Mg  0.44809741  0.90605385  0.86488554     1.58000
O548        O  0.48002377  0.92881280  0.83690106    -0.80800
O549        O  0.41480274  0.88710805  0.89068620    -0.75000
O550        O  0.41254786  0.83963277  0.98962315    -0.80800
O551        O  0.40663858  0.77211486  0.85532717    -0.82500
O552        O  0.44958607  0.86490252  0.76261101    -0.80900
C553        C  0.40721537  0.87307145  0.91308642     0.87300
O554        O  0.43856203  0.87936324  0.83102696    -0.88000
O555        O  0.46288043  0.89128925  0.89352755    -0.88100
O556        O  0.48423910  0.88634213  0.86034519    -0.75200
Mg557      Mg  0.39830846  0.83118464  0.93885007     1.58000
O558        O  0.43993540  0.87453365  0.99310911    -0.82500
H559        H  0.37293066  0.81101189  0.84451939    -0.06300
O560        O  0.44736394  0.84098400  0.82938805    -0.87800
H561        H  0.47495387  0.83928794  0.83556379    -0.06100
H562        H  0.41376440  0.88262616  0.81300255    -0.06300
C563        C  0.45800681  0.83339329  0.84268968     0.87300
C564        C  0.38481836  0.81538376  0.86356368     0.87900
C565        C  0.42042128  0.87182997  0.81752189     0.87900
H566        H  0.49333650  0.89775797  0.90539764    -0.06300
O567        O  0.45544124  0.85286236  0.94145408    -0.75300
Mg568      Mg  0.46506690  0.87489938  0.81303955     1.58000
H569        H  0.44871947  0.82110668  0.93871554    -0.06300
C570        C  0.41087594  0.77189258  0.82605506     0.92900
O571        O  0.42597806  0.82873589  0.75984914    -0.82500
C572        C  0.43744455  0.84745955  0.74643187     0.93000
O573        O  0.37558569  0.79500347  0.95337160    -0.82500
Mg574      Mg  0.45135043  0.88337349  0.94183986     1.58200
O575        O  0.41664484  0.78878374  0.80824449    -0.80800
O576        O  0.45793156  0.93392904  0.90144509    -0.82500
C577        C  0.42763374  0.82938970  0.65983154    -0.01800
C578        C  0.43395842  0.84937784  0.64360618     0.06800
C579        C  0.44139131  0.86886232  0.66135103    -0.07700
C580        C  0.44282530  0.86879355  0.69462238     0.04300
C581        C  0.43661410  0.84876802  0.71102317    -0.15000
C582        C  0.42898871  0.82924094  0.69308887    -0.08300
C583        C  0.43261455  0.85032785  0.60825469     0.05200
C584        C  0.41217814  0.83727776  0.59299317    -0.09400
C585        C  0.41016666  0.83788742  0.55987574     0.00200
C586        C  0.42878213  0.85249253  0.54130119     0.00100
C587        C  0.44921103  0.86556274  0.55670822    -0.13000
C588        C  0.45132980  0.86431727  0.58967999     0.00500
C589        C  0.38869925  0.82348675  0.54591550     0.39800
C590        C  0.47308704  0.87686623  0.60372344     0.36500
C591        C  0.42008502  0.80885423  0.64287466     0.36200
C592        C  0.45007088  0.88945760  0.71107909     0.36900
N593        N  0.37152689  0.81175880  0.53480025    -0.43900
N594        N  0.49054547  0.88679076  0.61495878    -0.44300
N595        N  0.45587403  0.90605208  0.72416343    -0.41700
N596        N  0.41393587  0.79239425  0.62925926    -0.43100
H597        H  0.42420144  0.81371894  0.70503562     0.13100
H598        H  0.44588908  0.88422200  0.64909938     0.09600
H599        H  0.39767638  0.82655281  0.60707435     0.10600
H600        H  0.46376752  0.87647114  0.54285860     0.16400
C601        C  0.44509287  0.86988951  0.09211627    -0.01800
C602        C  0.42785970  0.85208212  0.10876388     0.06800
C603        C  0.40988023  0.83563155  0.09172020    -0.07700
C604        C  0.40883285  0.83653714  0.05853409     0.04300
C605        C  0.42618143  0.85434666  0.04153249    -0.15000
C606        C  0.44414240  0.87088745  0.05890595    -0.08300
C607        C  0.42800110  0.85039668  0.14399548     0.05200
C608        C  0.42719147  0.86666063  0.16261708    -0.09400
C609        C  0.42685721  0.86541111  0.19588477     0.00200
C610        C  0.42725650  0.84754533  0.21106456     0.00100
C611        C  0.42766241  0.83108198  0.19238981    -0.13000
C612        C  0.42821122  0.83245519  0.15915068     0.00500
C613        C  0.42522424  0.88217922  0.21382846     0.39800
C614        C  0.42976962  0.81567567  0.14113473     0.36500
C615        C  0.46416644  0.88706917  0.10853233     0.36200
C616        C  0.38942645  0.81912401  0.04304494     0.36900
N617        N  0.42390041  0.89559071  0.22825250    -0.43900
N618        N  0.43108407  0.80226072  0.12671172    -0.44300
N619        N  0.37380445  0.80511381  0.03084300    -0.41700
N620        N  0.47943914  0.90084242  0.12169514    -0.43100
H621        H  0.45768065  0.88462792  0.04655390     0.13100
H622        H  0.39645377  0.82206183  0.10453101     0.09600
H623        H  0.42660279  0.88026049  0.15107519     0.10600
H624        H  0.42816152  0.81740012  0.20382150     0.16400
C625        C  0.53184724  0.97123802  0.75407219    -0.01800
C626        C  0.52878169  0.98955837  0.75833805     0.06800
C627        C  0.51354391  0.98835150  0.78107572    -0.07700
C628        C  0.50075423  0.96901569  0.79863976     0.04300
C629        C  0.50343882  0.95033226  0.79415736    -0.15000
C630        C  0.51928617  0.95187583  0.77195779    -0.08300
C631        C  0.53924902  0.00924414  0.73713162     0.05200
C632        C  0.53255091  0.00676803  0.70521450    -0.09400
C633        C  0.53888893  0.02523266  0.68559849     0.00200
C634        C  0.55205413  0.04684855  0.69810381     0.00100
C635        C  0.56000592  0.04909928  0.72947782    -0.13000
C636        C  0.55371017  0.03060554  0.74895377     0.00500
C637        C  0.53068779  0.02128168  0.65333956     0.39800
C638        C  0.56207875  0.03395157  0.78110263     0.36500
C639        C  0.54768480  0.97198930  0.73127849     0.36200
C640        C  0.48364346  0.96833692  0.81879702     0.36900
N641        N  0.52418519  0.01790626  0.62743993    -0.43900
N642        N  0.56890677  0.03670689  0.80681051    -0.44300
N643        N  0.46981152  0.96780274  0.83465019    -0.41700
N644        N  0.56044119  0.97277129  0.71295699    -0.43100
H645        H  0.52157946  0.93778980  0.76810371     0.13100
H646        H  0.51080318  0.00225541  0.78392265     0.09600
H647        H  0.52148465  0.99033158  0.69598082     0.10600
H648        H  0.57076468  0.06544215  0.73915216     0.16400
C649        C  0.50236462  0.03290056  0.48948534    -0.01800
C650        C  0.48763415  0.01267611  0.50433935     0.06800
C651        C  0.48386981  0.01240293  0.53721008    -0.07700
C652        C  0.49486328  0.03181298  0.55539733     0.04300
C653        C  0.50996727  0.05197076  0.54061249    -0.15000
C654        C  0.51309629  0.05229435  0.50754058    -0.08300
C655        C  0.47796985  0.99139454  0.48671134     0.05200
C656        C  0.48464556  0.97624372  0.49543449    -0.09400
C657        C  0.47751223  0.95667115  0.47835711     0.00200
C658        C  0.46334948  0.95191222  0.45174655     0.00100
C659        C  0.45642804  0.96696372  0.44316978    -0.13000
C660        C  0.46337336  0.98646966  0.46070279     0.00500
C661        C  0.48596534  0.94234409  0.48776377     0.39800
C662        C  0.45502966  0.00097462  0.45202768     0.36500
C663        C  0.50791926  0.03395396  0.45619465     0.36200
C664        C  0.49002279  0.03067149  0.58893946     0.36900
N665        N  0.49271949  0.93085759  0.49525802    -0.43900
N666        N  0.44833194  0.01261524  0.44517149    -0.44300
N667        N  0.48603033  0.02975270  0.61579563    -0.41700
N668        N  0.51239283  0.03477870  0.42953926    -0.43100
H669        H  0.52484405  0.06760771  0.49591681     0.13100
H670        H  0.47259393  0.99687824  0.54875583     0.09600
H671        H  0.49598788  0.98002934  0.51523910     0.10600
H672        H  0.44539417  0.96335330  0.42303657     0.16400
C673        C  0.59584119  0.16113089  0.91484180    -0.01800
C674        C  0.57718143  0.14640195  0.89668942     0.06800
C675        C  0.55735165  0.13201590  0.91242221    -0.07700
C676        C  0.55563695  0.13264242  0.94557168     0.04300
C677        C  0.57398755  0.14824468  0.96365562    -0.15000
C678        C  0.59399675  0.16222761  0.94788291    -0.08300
C679        C  0.57794520  0.14549833  0.86135138     0.05200
C680        C  0.57315067  0.12553723  0.84673629    -0.09400
C681        C  0.57349437  0.12381030  0.81357036     0.00200
C682        C  0.57884898  0.14243660  0.79420122     0.00100
C683        C  0.58348488  0.16237758  0.80894805    -0.13000
C684        C  0.58280066  0.16396293  0.84210416     0.00500
C685        C  0.56892660  0.10286152  0.80037230     0.39800
C686        C  0.58644555  0.18450603  0.85573505     0.36500
C687        C  0.61722140  0.17475704  0.90023427     0.36200
C688        C  0.53462964  0.11752482  0.96010437     0.36900
N689        N  0.56518875  0.08597848  0.79005696    -0.43900
N690        N  0.58942628  0.20097639  0.86670745    -0.44300
N691        N  0.51780654  0.10531693  0.97168916    -0.41700
N692        N  0.63434459  0.18563115  0.88848112    -0.43100
H693        H  0.60839436  0.17383040  0.96148840     0.13100
H694        H  0.54304097  0.12041612  0.89865415     0.09600
H695        H  0.56929811  0.11125831  0.86138605     0.10600
H696        H  0.58724672  0.17670929  0.79449308     0.16400
C697        C  0.58440416  0.17120588  0.34239554    -0.01800
C698        C  0.57938927  0.15281769  0.36189922     0.06800
C699        C  0.57412314  0.13261530  0.34764375    -0.07700
C700        C  0.57385778  0.13047126  0.31453968     0.04300
C701        C  0.57906650  0.14892812  0.29489426    -0.15000
C702        C  0.58446804  0.16919831  0.30923330    -0.08300
C703        C  0.57852108  0.15380379  0.39715254     0.05200
C704        C  0.55837769  0.13989320  0.41248746    -0.09400
C705        C  0.55667026  0.13974109  0.44565534     0.00200
C706        C  0.57539723  0.15396473  0.46421604     0.00100
C707        C  0.59559084  0.16786764  0.44881395    -0.13000
C708        C  0.59737380  0.16763788  0.41563192     0.00500
C709        C  0.53532146  0.12527321  0.45980951     0.39800
C710        C  0.61886989  0.18103947  0.40123439     0.36500
C711        C  0.58871243  0.19204191  0.35574927     0.36200
C712        C  0.56882587  0.10928184  0.30159162     0.36900
N713        N  0.51820746  0.11362964  0.47109204    -0.43900
N714        N  0.63610798  0.19174674  0.38971058    -0.44300
N715        N  0.56476730  0.09227422  0.29133431    -0.41700
N716        N  0.59218888  0.20876429  0.36639921    -0.43100
H717        H  0.58826019  0.18340542  0.29446816     0.13100
H718        H  0.57023304  0.11843129  0.36253744     0.09600
H719        H  0.54387133  0.12912750  0.39839466     0.10600
H720        H  0.61017194  0.17857687  0.46280111     0.16400
C721        C  0.52306683  0.98746042  0.29441888    -0.01800
C722        C  0.52205492  0.98942061  0.26112618     0.06800
C723        C  0.51065587  0.97016830  0.24280731    -0.07700
C724        C  0.49900023  0.94931227  0.25713854     0.04300
C725        C  0.49817869  0.94745653  0.29079419    -0.15000
C726        C  0.51086736  0.96668642  0.30896091    -0.08300
C727        C  0.53115552  0.01121933  0.24486761     0.05200
C728        C  0.54631874  0.01649459  0.21976796    -0.09400
C729        C  0.55329225  0.03573844  0.20159471     0.00200
C730        C  0.54513350  0.05012308  0.20857874     0.00100
C731        C  0.53046584  0.04514704  0.23418698    -0.13000
C732        C  0.52318064  0.02578925  0.25194661     0.00500
C733        C  0.56917657  0.04065544  0.17645314     0.39800
C734        C  0.50646231  0.02062670  0.27595352     0.36500
C735        C  0.53651033  0.00650955  0.31410278     0.36200
C736        C  0.48733695  0.93041935  0.23643402     0.36900
N737        N  0.58199530  0.04473662  0.15636657    -0.43900
N738        N  0.49308802  0.01650677  0.29520247    -0.44300
N739        N  0.47828186  0.91542746  0.21951194    -0.41700
N740        N  0.54732670  0.02176245  0.32988284    -0.43100
H741        H  0.51105418  0.96555019  0.33467190     0.13100
H742        H  0.51014125  0.97151651  0.21714568     0.09600
H743        H  0.55245684  0.00536238  0.21408645     0.10600
H744        H  0.52390627  0.05598958  0.23951322     0.16400
C745        C  0.45579169  0.97014189  0.99815606    -0.01800
C746        C  0.47359538  0.99101099  0.98956694     0.06800
C747        C  0.48448499  0.99321966  0.96060381    -0.07700
C748        C  0.47849432  0.97491690  0.94078408     0.04300
C749        C  0.46096875  0.95378450  0.94963276    -0.15000
C750        C  0.44961960  0.95180092  0.97826054    -0.08300
C751        C  0.48248628  0.01042230  0.01137648     0.05200
C752        C  0.49390160  0.01041155  0.03885666    -0.09400
C753        C  0.50537656  0.02947697  0.05765488     0.00200
C754        C  0.50567015  0.04928945  0.04889683     0.00100
C755        C  0.49310690  0.04874121  0.02223787    -0.13000
C756        C  0.48158993  0.02959114  0.00364199     0.00500
C757        C  0.51763622  0.02833038  0.08462401     0.39800
C758        C  0.46901899  0.02995911  0.97657182     0.36500
C759        C  0.44374399  0.96719737  0.02735236     0.36200
C760        C  0.49203626  0.97806722  0.91315300     0.36900
N761        N  0.52742918  0.02733132  0.10621070    -0.43900
N762        N  0.45880960  0.03013762  0.95495921    -0.44300
N763        N  0.50321578  0.98076373  0.89133116    -0.41700
N764        N  0.43408525  0.96490732  0.05074044    -0.43100
H765        H  0.43616266  0.93575374  0.98547232     0.13100
H766        H  0.49842599  0.00918242  0.95414559     0.09600
H767        H  0.49460911  0.99566312  0.04491027     0.10600
H768        H  0.49269126  0.06349961  0.01533470     0.16400
C769        C  0.73649275  0.30954432  0.69859676    -0.01800
C770        C  0.71587604  0.30725591  0.70719484     0.06800
C771        C  0.71528656  0.32549718  0.71995278    -0.07700
C772        C  0.73484139  0.34556894  0.72531792     0.04300
C773        C  0.75566858  0.34765090  0.71810450    -0.15000
C774        C  0.75611332  0.32961688  0.70397296    -0.08300
C775        C  0.69477496  0.28587051  0.70383220     0.05200
C776        C  0.69163753  0.26756017  0.72175739    -0.09400
C777        C  0.67206810  0.24703160  0.71918312     0.00200
C778        C  0.65486807  0.24459754  0.69856367     0.00100
C779        C  0.65803394  0.26327513  0.68117878    -0.13000
C780        C  0.67772032  0.28361911  0.68344597     0.00500
C781        C  0.67070226  0.22873649  0.73706219     0.39800
C782        C  0.68043543  0.30166261  0.66348256     0.36500
C783        C  0.73790200  0.29149999  0.68426001     0.36200
C784        C  0.73287401  0.36382396  0.73754579     0.36900
N785        N  0.66977417  0.21411705  0.75134245    -0.43900
N786        N  0.68264272  0.31606770  0.64735297    -0.44300
N787        N  0.73113368  0.37843364  0.74703703    -0.41700
N788        N  0.73900257  0.27701457  0.67278059    -0.43100
H789        H  0.77187196  0.33091002  0.69808665     0.13100
H790        H  0.69945192  0.32392783  0.72618117     0.09600
H791        H  0.70471089  0.26927610  0.73759601     0.10600
H792        H  0.64529289  0.26194930  0.66499100     0.16400
C793        C  0.72049351  0.31903487  0.23879701    -0.01800
C794        C  0.71629821  0.30905494  0.20862278     0.06800
C795        C  0.73175112  0.31950399  0.18412546    -0.07700
C796        C  0.75163560  0.33938603  0.18968792     0.04300
C797        C  0.75629580  0.34904013  0.22041116    -0.15000
C798        C  0.74027698  0.33874809  0.24444825    -0.08300
C799        C  0.69594328  0.28751024  0.20269221     0.05200
C800        C  0.67737939  0.28726867  0.18948215    -0.09400
C801        C  0.65748943  0.26731150  0.18511760     0.00200
C802        C  0.65588995  0.24699238  0.19435504     0.00100
C803        C  0.67455481  0.24740546  0.20790658    -0.13000
C804        C  0.69451440  0.26740252  0.21180743     0.00500
C805        C  0.63891333  0.26833925  0.17172075     0.39800
C806        C  0.71355199  0.26695237  0.22448701     0.36500
C807        C  0.70471737  0.30922385  0.26440067     0.36200
C808        C  0.76657533  0.34966828  0.16329788     0.36900
N809        N  0.62406921  0.26919207  0.16091008    -0.43900
N810        N  0.72892674  0.26670167  0.23441019    -0.44300
N811        N  0.77847451  0.35791982  0.14206759    -0.41700
N812        N  0.69202945  0.30136433  0.28486134    -0.43100
H813        H  0.74337840  0.34584399  0.26810336     0.13100
H814        H  0.72833365  0.31199902  0.16070287     0.09600
H815        H  0.67840392  0.30276912  0.18280230     0.10600
H816        H  0.67378649  0.23202370  0.21455662     0.16400
C817        C  0.83131987  0.42853341  0.50977563    -0.01800
C818        C  0.85058122  0.43128514  0.52525287     0.06800
C819        C  0.86856208  0.43418963  0.50661424    -0.07700
C820        C  0.86779957  0.43470975  0.47334151     0.04300
C821        C  0.84839824  0.43164199  0.45782935    -0.15000
C822        C  0.83031045  0.42847078  0.47647005    -0.08300
C823        C  0.85197887  0.43008739  0.56062494     0.05200
C824        C  0.83544738  0.41156894  0.57671988    -0.09400
C825        C  0.83630774  0.40926577  0.60970023     0.00200
C826        C  0.85465554  0.42537432  0.62744388     0.00100
C827        C  0.87119750  0.44395579  0.61120691    -0.13000
C828        C  0.86987851  0.44655874  0.57834181     0.00500
C829        C  0.81800853  0.39007373  0.62422537     0.39800
C830        C  0.88685226  0.46658368  0.56357416     0.36500
C831        C  0.81253001  0.42629005  0.52742206     0.36200
C832        C  0.88699858  0.43778259  0.45590682     0.36900
N833        N  0.80315328  0.37475570  0.63565230    -0.43900
N834        N  0.90048197  0.48263916  0.55180275    -0.44300
N835        N  0.90246245  0.44034616  0.44206765    -0.41700
N836        N  0.79741176  0.42442505  0.54147049    -0.43100
H837        H  0.81543595  0.42639518  0.46498795     0.13100
H838        H  0.88323661  0.43579280  0.51812928     0.09600
H839        H  0.82177364  0.39865874  0.56335603     0.10600
H840        H  0.88513737  0.45677094  0.62427045     0.16400
C841        C  0.87301555  0.43113716  0.07558095    -0.01800
C842        C  0.85332167  0.42743954  0.06043599     0.06800
C843        C  0.83491906  0.42299743  0.07925694    -0.07700
C844        C  0.83585299  0.42230069  0.11252329     0.04300
C845        C  0.85561031  0.42615028  0.12774164    -0.15000
C846        C  0.87407450  0.43074660  0.10887937    -0.08300
C847        C  0.85118608  0.42755392  0.02510168     0.05200
C848        C  0.83478190  0.40841738  0.00985333    -0.09400
C849        C  0.83183483  0.40777157  0.97675039     0.00200
C850        C  0.84555400  0.42659651  0.95808574     0.00100
C851        C  0.86185716  0.44577315  0.97348158    -0.13000
C852        C  0.86460768  0.44648929  0.00657450     0.00500
C853        C  0.81515379  0.38731860  0.96260267     0.39800
C854        C  0.88084125  0.46708254  0.02096804     0.36500
C855        C  0.89211130  0.43456871  0.05755932     0.36200
C856        C  0.81649866  0.41833977  0.13037105     0.36900
N857        N  0.80177920  0.37088180  0.95135076    -0.43900
N858        N  0.89392146  0.48358432  0.03242020    -0.44300
N859        N  0.80099496  0.41519136  0.14465617    -0.41700
N860        N  0.90748982  0.43739717  0.04323590    -0.43100
H861        H  0.88926199  0.43351012  0.12015593     0.13100
H862        H  0.81975134  0.42019323  0.06785082     0.09600
H863        H  0.82433081  0.39381828  0.02391159     0.10600
H864        H  0.87228583  0.46046919  0.95963323     0.16400
C865        C  0.28523172  0.68013411  0.48951051    -0.01800
C866        C  0.28804844  0.69520528  0.46535273     0.06800
C867        C  0.27032724  0.69069011  0.44506829    -0.07700
C868        C  0.24963593  0.67156635  0.44893843     0.04300
C869        C  0.24647965  0.65635429  0.47351174    -0.15000
C870        C  0.26470725  0.66091449  0.49327393    -0.08300
C871        C  0.30928927  0.71601097  0.46109458     0.05200
C872        C  0.32695049  0.71525873  0.44655695    -0.09400
C873        C  0.34684346  0.73472369  0.44023177     0.00200
C874        C  0.34930601  0.75548713  0.44885094     0.00100
C875        C  0.33182638  0.75600855  0.46472871    -0.13000
C876        C  0.31184995  0.73649661  0.47060943     0.00500
C877        C  0.36434543  0.73276008  0.42492051     0.39800
C878        C  0.29401421  0.73782708  0.48592780     0.36500
C879        C  0.30294065  0.68448859  0.51143919     0.36200
C880        C  0.23208001  0.66863210  0.42779558     0.36900
N881        N  0.37830173  0.73113826  0.41254903    -0.43900
N882        N  0.27962170  0.73877465  0.49810088    -0.44300
N883        N  0.21825813  0.66674207  0.41062731    -0.41700
N884        N  0.31710784  0.68806287  0.52909076    -0.43100
H885        H  0.26292611  0.64967860  0.51233253     0.13100
H886        H  0.27262528  0.70238952  0.42640207     0.09600
H887        H  0.32498881  0.69941614  0.43955261     0.10600
H888        H  0.33341194  0.77173617  0.47144773     0.16400
C889        C  0.99392737  0.48203418  0.71849723    -0.01800
C890        C  0.99407623  0.47420759  0.68762201     0.06800
C891        C  0.97469012  0.45601775  0.67581785    -0.07700
C892        C  0.95500598  0.44635860  0.69359572     0.04300
C893        C  0.95440006  0.45514382  0.72367765    -0.15000
C894        C  0.97422884  0.47249022  0.73622320    -0.08300
C895        C  0.01399673  0.48549451  0.66682635     0.05200
C896        C  0.03266998  0.48358455  0.67363408    -0.09400
C897        C  0.05220632  0.49514840  0.65576299     0.00200
C898        C  0.05335653  0.50913794  0.63041586     0.00100
C899        C  0.03425679  0.51032852  0.62306139    -0.13000
C900        C  0.01479663  0.49878680  0.64101982     0.00500
C901        C  0.07064656  0.49211385  0.66399029     0.39800
C902        C  0.99618006  0.50168860  0.63347416     0.36500
C903        C  0.01351003  0.50062625  0.73175342     0.36200
C904        C  0.93575974  0.42727080  0.68060925     0.36900
N905        N  0.08537006  0.48960753  0.67065477    -0.43900
N906        N  0.98129897  0.50408763  0.62746660    -0.44300
N907        N  0.92038608  0.41185708  0.67032154    -0.41700
N908        N  0.02923208  0.51552679  0.74231561    -0.43100
H909        H  0.97410811  0.47944554  0.75923312     0.13100
H910        H  0.97486235  0.44960430  0.65239396     0.09600
H911        H  0.03203949  0.47320015  0.69327167     0.10600
H912        H  0.03472929  0.52101309  0.60397715     0.16400
C913        C  0.00832645  0.52179288  0.46508768    -0.01800
C914        C  0.00858566  0.53145901  0.43550724     0.06800
C915        C  0.02842642  0.54960543  0.42477701    -0.07700
C916        C  0.04808615  0.55752673  0.44237503     0.04300
C917        C  0.04802230  0.54734079  0.47150955    -0.15000
C918        C  0.02786426  0.52992293  0.48294404    -0.08300
C919        C  0.98880417  0.52150513  0.41432920     0.05200
C920        C  0.96998338  0.52274684  0.42268929    -0.09400
C921        C  0.95028367  0.51148770  0.40501807     0.00200
C922        C  0.94913399  0.49846753  0.37832387     0.00100
C923        C  0.96849331  0.49824816  0.36927926    -0.13000
C924        C  0.98808887  0.50948082  0.38702445     0.00500
C925        C  0.93161509  0.51357703  0.41517757     0.39800
C926        C  0.00691745  0.50735417  0.37788411     0.36500
C927        C  0.98856603  0.50250491  0.47648459     0.36200
C928        C  0.06807544  0.57606264  0.42996965     0.36900
N929        N  0.91670306  0.51530769  0.42341152    -0.43900
N930        N  0.02204774  0.50566503  0.37077324    -0.44300
N931        N  0.08411523  0.59091159  0.42006119    -0.41700
N932        N  0.97275179  0.48695296  0.48544366    -0.43100
H933        H  0.02759414  0.52178324  0.50506096     0.13100
H934        H  0.02866917  0.55714779  0.40211067     0.09600
H935        H  0.97056266  0.53216298  0.44354970     0.10600
H936        H  0.96814029  0.48844167  0.34906193     0.16400
C937        C  0.28502377  0.67959509  0.98029930    -0.01800
C938        C  0.28665647  0.69780599  0.96351253     0.06800
C939        C  0.26733725  0.69653591  0.95113325    -0.07700
C940        C  0.24645631  0.67774062  0.95599917     0.04300
C941        C  0.24461951  0.65961815  0.97371077    -0.15000
C942        C  0.26421393  0.66086631  0.98538738    -0.08300
C943        C  0.30839115  0.71803991  0.95749582     0.05200
C944        C  0.31652417  0.72247921  0.92634955    -0.09400
C945        C  0.33657513  0.74157146  0.91909287     0.00200
C946        C  0.34898946  0.75693262  0.94340844     0.00100
C947        C  0.34073148  0.75241747  0.97469140    -0.13000
C948        C  0.32069836  0.73312944  0.98189205     0.00500
C949        C  0.34336855  0.74527198  0.88615666     0.39800
C950        C  0.31285285  0.72938468  0.01431731     0.36500
C951        C  0.30452053  0.67953820  0.99188624     0.36200
C952        C  0.22733147  0.67799501  0.94330629     0.36900
N953        N  0.34874660  0.74817876  0.85974498    -0.43900
N954        N  0.30658934  0.72634111  0.04032246    -0.44300
N955        N  0.21211664  0.67839414  0.93303435    -0.41700
N956        N  0.32013304  0.67943969  0.00109817    -0.43100
H957        H  0.26335907  0.64710414  0.99857904     0.13100
H958        H  0.26858626  0.71044279  0.93784824     0.09600
H959        H  0.30703087  0.71097577  0.90752463     0.10600
H960        H  0.34994913  0.76395008  0.99359981     0.16400
C961        C  0.99420003  0.47634086  0.21922887    -0.01800
C962        C  0.99338185  0.47039597  0.18691855     0.06800
C963        C  0.97282433  0.45521299  0.17360702    -0.07700
C964        C  0.95311111  0.44758764  0.19080843     0.04300
C965        C  0.95371881  0.45488035  0.22246077    -0.15000
C966        C  0.97451218  0.46847640  0.23666798    -0.08300
C967        C  0.01332256  0.48127866  0.16590168     0.05200
C968        C  0.03237547  0.48020793  0.17355742    -0.09400
C969        C  0.05194811  0.49188006  0.15577776     0.00200
C970        C  0.05263002  0.50473818  0.12911963     0.00100
C971        C  0.03311736  0.50482519  0.12070431    -0.13000
C972        C  0.01376208  0.49352300  0.13886360     0.00500
C973        C  0.07102860  0.49051125  0.16600281     0.39800
C974        C  0.99494642  0.49585108  0.13024128     0.36500
C975        C  0.01485153  0.49161650  0.23452204     0.36200
C976        C  0.93255912  0.43267878  0.17494139     0.36900
N977        N  0.08630165  0.48946625  0.17444290    -0.43900
N978        N  0.97984048  0.49767477  0.12339963    -0.44300
N979        N  0.91612520  0.42081146  0.16209772    -0.41700
N980        N  0.03138932  0.50379133  0.24686810    -0.43100
H981        H  0.97539869  0.47410185  0.26094774     0.13100
H982        H  0.97210411  0.45002656  0.14910649     0.09600
H983        H  0.03209340  0.47056925  0.19398173     0.10600
H984        H  0.03318213  0.51464154  0.10066257     0.16400
C985        C  0.13711214  0.56167510  0.82935642    -0.01800
C986        C  0.14970621  0.58117211  0.81151463     0.06800
C987        C  0.16012291  0.60161802  0.82728099    -0.07700
C988        C  0.15829390  0.60287340  0.86032353     0.04300
C989        C  0.14566062  0.58334800  0.87828602    -0.15000
C990        C  0.13504306  0.56291269  0.86234026    -0.08300
C991        C  0.15153293  0.58060095  0.77628986     0.05200
C992        C  0.13222985  0.57233646  0.75786528    -0.09400
C993        C  0.13297337  0.57116656  0.72467698     0.00200
C994        C  0.15357091  0.57863265  0.70904203     0.00100
C995        C  0.17294581  0.58726583  0.72768574    -0.13000
C996        C  0.17206838  0.58819222  0.76092907     0.00500
C997        C  0.11224481  0.56242365  0.70763780     0.39800
C998        C  0.19236957  0.59626107  0.77881915     0.36500
C999        C  0.12677938  0.54016021  0.81444663     0.36200
C1000       C  0.16884906  0.62449108  0.87488049     0.36900
N1001       N  0.09556129  0.55533172  0.69417479    -0.43900
N1002       N  0.20864879  0.60268332  0.79312281    -0.44300
N1003       N  0.17728240  0.64186075  0.88642402    -0.41700
N1004       N  0.11858663  0.52295414  0.80240497    -0.43100
H1005       H  0.12550814  0.54777302  0.87578841     0.13100
H1006       H  0.16952648  0.61668827  0.81362580     0.09600
H1007       H  0.11643126  0.56673541  0.76956967     0.10600
H1008       H  0.18886873  0.59293384  0.71636656     0.16400
C1009       C  0.17200170  0.57877136  0.26030691    -0.01800
C1010       C  0.15165880  0.57016286  0.27659342     0.06800
C1011       C  0.13197452  0.56124785  0.25893172    -0.07700
C1012       C  0.13224592  0.56114338  0.22558182     0.04300
C1013       C  0.15273995  0.57045575  0.20899517    -0.15000
C1014       C  0.17240917  0.57899687  0.22695195    -0.08300
C1015       C  0.15060874  0.57174626  0.31184627     0.05200
C1016       C  0.16062393  0.59278363  0.32590807    -0.09400
C1017       C  0.15903949  0.59530072  0.35868720     0.00200
C1018       C  0.14729601  0.57648878  0.37825256     0.00100
C1019       C  0.13719014  0.55540923  0.36414375    -0.13000
C1020       C  0.13879226  0.55290587  0.33129688     0.00500
C1021       C  0.16831152  0.61741416  0.37118145     0.39800
C1022       C  0.12854981  0.53084521  0.31822593     0.36500
C1023       C  0.19265216  0.58699880  0.27734388     0.36200
C1024       C  0.11114048  0.55180210  0.20944397     0.36900
N1025       N  0.17547415  0.63516747  0.38101049    -0.43900
N1026       N  0.12032810  0.51313436  0.30783872    -0.44300
N1027       N  0.09411811  0.54421922  0.19681448    -0.41700
N1028       N  0.20919548  0.59348267  0.29098250    -0.43100
H1029       H  0.18824911  0.58574728  0.21494932     0.13100
H1030       H  0.11628356  0.55472991  0.27132238     0.09600
H1031       H  0.16925590  0.60735687  0.31102304     0.10600
H1032       H  0.12822450  0.54081470  0.37888754     0.16400
C1033       C  0.00710714  0.51693591  0.96598155    -0.01800
C1034       C  0.00649812  0.52648743  0.93667115     0.06800
C1035       C  0.02548517  0.54571530  0.92628183    -0.07700
C1036       C  0.04519938  0.55491230  0.94391637     0.04300
C1037       C  0.04593396  0.54514459  0.97306583    -0.15000
C1038       C  0.02657230  0.52651550  0.98411217    -0.08300
C1039       C  0.98639723  0.51610372  0.91618240     0.05200
C1040       C  0.96655038  0.51375042  0.92800511    -0.09400
C1041       C  0.94670617  0.50213520  0.91095483     0.00200
C1042       C  0.94650006  0.49274117  0.88085920     0.00100
C1043       C  0.96675960  0.49609916  0.86852808    -0.13000
C1044       C  0.98649965  0.50747544  0.88591668     0.00500
C1045       C  0.92693242  0.49975591  0.92576932     0.39800
C1046       C  0.00639903  0.50896583  0.87297739     0.36500
C1047       C  0.98851624  0.49636228  0.97677349     0.36200
C1048       C  0.06445821  0.57416073  0.93130317     0.36900
N1049       N  0.91118924  0.49788658  0.93793003    -0.43900
N1050       N  0.02235027  0.51013715  0.86267613    -0.44300
N1051       N  0.07992552  0.58949711  0.92108043    -0.41700
N1052       N  0.97367192  0.47977830  0.98521608    -0.43100
H1053       H  0.02701148  0.51854351  0.00603899     0.13100
H1054       H  0.02504197  0.55321374  0.90389315     0.09600
H1055       H  0.96648194  0.52054355  0.95118644     0.10600
H1056       H  0.96715219  0.48910214  0.84568492     0.16400
C1057       C  0.41609991  0.68076325  0.80111137    -0.01800
C1058       C  0.40437218  0.68949703  0.78509243     0.06800
C1059       C  0.39063350  0.67780263  0.75951694    -0.07700
C1060       C  0.38892505  0.65795946  0.74905739     0.04300
C1061       C  0.40127032  0.64943057  0.76430952    -0.15000
C1062       C  0.41442292  0.66084012  0.79076109    -0.08300
C1063       C  0.40574036  0.71057178  0.79501213     0.05200
C1064       C  0.42211805  0.73063476  0.78186292    -0.09400
C1065       C  0.42381151  0.75083945  0.79078668     0.00200
C1066       C  0.40884986  0.75109488  0.81323411     0.00100
C1067       C  0.39232915  0.73085754  0.82600122    -0.13000
C1068       C  0.39064716  0.71075887  0.81703654     0.00500
C1069       C  0.44174904  0.77106286  0.77795767     0.39800
C1070       C  0.37344851  0.69050533  0.83097668     0.36500
C1071       C  0.43015611  0.69216478  0.82792703     0.36200
C1072       C  0.37404436  0.64658924  0.72291791     0.36900
N1073       N  0.45618561  0.78730099  0.76781023    -0.43900
N1074       N  0.35968177  0.67425528  0.84212304    -0.44300
N1075       N  0.36213196  0.63751731  0.70196277    -0.41700
N1076       N  0.44142275  0.70135187  0.84941143    -0.43100
H1077       H  0.42397044  0.65458866  0.80275756     0.13100
H1078       H  0.38124095  0.68427562  0.74761324     0.09600
H1079       H  0.43376773  0.73050697  0.76489648     0.10600
H1080       H  0.38072311  0.73073722  0.84329122     0.16400
C1081       C  0.31300009  0.58917755  0.65513257    -0.01800
C1082       C  0.30497303  0.58895175  0.62434863     0.06800
C1083       C  0.31614833  0.58685150  0.59795909    -0.07700
C1084       C  0.33520331  0.58502985  0.60193684     0.04300
C1085       C  0.34351835  0.58570522  0.63282349    -0.15000
C1086       C  0.33208690  0.58763210  0.65910536    -0.08300
C1087       C  0.28544680  0.59176281  0.61926018     0.05200
C1088       C  0.28877654  0.61180212  0.60671740    -0.09400
C1089       C  0.27079734  0.61499910  0.60080221     0.00200
C1090       C  0.24901402  0.59791726  0.60745086     0.00100
C1091       C  0.24576369  0.57821958  0.62128297    -0.13000
C1092       C  0.26377293  0.57497895  0.62704092     0.00500
C1093       C  0.27506402  0.63599000  0.58807426     0.39800
C1094       C  0.25956605  0.55395084  0.63948846     0.36500
C1095       C  0.30216132  0.59142078  0.68298022     0.36200
C1096       C  0.34631616  0.58342116  0.57398630     0.36900
N1097       N  0.27844799  0.65285764  0.57812881    -0.43900
N1098       N  0.25623193  0.53710047  0.64944371    -0.44300
N1099       N  0.35519482  0.58217509  0.55150185    -0.41700
N1100       N  0.29339300  0.59311770  0.70526807    -0.43100
H1101       H  0.33808524  0.58791980  0.68302534     0.13100
H1102       H  0.31001876  0.58677320  0.57420692     0.09600
H1103       H  0.30546273  0.62489867  0.60131180     0.10600
H1104       H  0.22905409  0.56487848  0.62589038     0.16400
C1105       C  0.42211430  0.73403446  0.28437112    -0.01800
C1106       C  0.40395051  0.71291770  0.29097547     0.06800
C1107       C  0.38513700  0.71105458  0.30590718    -0.07700
C1108       C  0.38453975  0.72993735  0.31541343     0.04300
C1109       C  0.40291010  0.75111821  0.30947156    -0.15000
C1110       C  0.42138812  0.75297944  0.29337369    -0.08300
C1111       C  0.40408062  0.69250666  0.28207723     0.05200
C1112       C  0.41560017  0.68506397  0.30109587    -0.09400
C1113       C  0.41628981  0.66590800  0.29301988     0.00200
C1114       C  0.40547032  0.65405424  0.26513668     0.00100
C1115       C  0.39359778  0.66152142  0.24662304    -0.13000
C1116       C  0.39273832  0.68042487  0.25493108     0.00500
C1117       C  0.42873882  0.65932163  0.31324781     0.39800
C1118       C  0.38044407  0.68736191  0.23491956     0.36500
C1119       C  0.44175627  0.73658581  0.26893287     0.36200
C1120       C  0.36487499  0.72717494  0.33110609     0.36900
N1121       N  0.43867373  0.65403469  0.32956318    -0.43900
N1122       N  0.37055941  0.69289149  0.21892763    -0.44300
N1123       N  0.34909676  0.72492748  0.34364215    -0.41700
N1124       N  0.45752789  0.73861667  0.25665805    -0.43100
H1125       H  0.43564385  0.76920395  0.28913108     0.13100
H1126       H  0.37104727  0.69479120  0.31055830     0.09600
H1127       H  0.42417922  0.69435182  0.32219342     0.10600
H1128       H  0.38505601  0.65270552  0.22523255     0.16400
C1129       C  0.31425728  0.58256965  0.10183618    -0.01800
C1130       C  0.30638138  0.59220634  0.12396703     0.06800
C1131       C  0.31709481  0.59941100  0.15325294    -0.07700
C1132       C  0.33578027  0.59770584  0.16059030     0.04300
C1133       C  0.34463260  0.58912505  0.13782186    -0.15000
C1134       C  0.33333943  0.58129771  0.10871096    -0.08300
C1135       C  0.28688240  0.59483440  0.11726190     0.05200
C1136       C  0.26704632  0.58182223  0.13390917    -0.09400
C1137       C  0.24805029  0.58329318  0.12737992     0.00200
C1138       C  0.24884574  0.59817610  0.10387793     0.00100
C1139       C  0.26909786  0.61188278  0.08837458    -0.13000
C1140       C  0.28797436  0.61035751  0.09487212     0.00500
C1141       C  0.22776494  0.56845103  0.14378127     0.39800
C1142       C  0.30827894  0.62492359  0.07826711     0.36500
C1143       C  0.30255273  0.57325780  0.07242958     0.36200
C1144       C  0.34462797  0.60395502  0.19237167     0.36900
N1145       N  0.21148462  0.55653073  0.15687539    -0.43900
N1146       N  0.32450234  0.63665256  0.06490854    -0.44300
N1147       N  0.35137847  0.60873391  0.21803258    -0.41700
N1148       N  0.29296673  0.56563865  0.04904787    -0.43100
H1149       H  0.33936835  0.57414255  0.09125288     0.13100
H1150       H  0.31069421  0.60630111  0.17060526     0.09600
H1151       H  0.26626321  0.57005274  0.15144853     0.10600
H1152       H  0.27011344  0.62361145  0.07056666     0.16400
C1153       C  0.40095595  0.56641927  0.99017167    -0.01800
C1154       C  0.41919481  0.57008213  0.97118825     0.06800
C1155       C  0.43851499  0.57308556  0.98618582    -0.07700
C1156       C  0.43970312  0.57172294  0.01928157     0.04300
C1157       C  0.42127349  0.56758085  0.03841323    -0.15000
C1158       C  0.40215910  0.56526217  0.02334118    -0.08300
C1159       C  0.41875805  0.57109644  0.93575663     0.05200
C1160       C  0.41413555  0.58640541  0.92106728    -0.09400
C1161       C  0.41462552  0.58858185  0.88789243     0.00200
C1162       C  0.42055006  0.57568255  0.86859037     0.00100
C1163       C  0.42498401  0.56023777  0.88339183    -0.13000
C1164       C  0.42386360  0.55766355  0.91649053     0.00500
C1165       C  0.40951226  0.60461963  0.87463780     0.39800
C1166       C  0.42758221  0.54077224  0.93006017     0.36500
C1167       C  0.38060789  0.56327401  0.97628238     0.36200
C1168       C  0.46029185  0.57513073  0.03262796     0.36900
N1169       N  0.40526204  0.61736968  0.86405957    -0.43900
N1170       N  0.43056087  0.52725251  0.94098150    -0.44300
N1171       N  0.47684595  0.57784130  0.04308091    -0.41700
N1172       N  0.36431390  0.56088254  0.96528613    -0.43100
H1173       H  0.38786358  0.56214910  0.03745656     0.13100
H1174       H  0.45283979  0.57655110  0.97185983     0.09600
H1175       H  0.41044404  0.59697972  0.93563565     0.10600
H1176       H  0.42909880  0.54988660  0.86902996     0.16400
C1177       C  0.42308036  0.59020496  0.42145717    -0.01800
C1178       C  0.42756518  0.57443563  0.43537764     0.06800
C1179       C  0.43336345  0.56195010  0.41561329    -0.07700
C1180       C  0.43498435  0.56506370  0.38256806     0.04300
C1181       C  0.43087513  0.58115412  0.36850555    -0.15000
C1182       C  0.42478724  0.59345028  0.38839511    -0.08300
C1183       C  0.42600038  0.57049477  0.47041813     0.05200
C1184       C  0.40549299  0.56262549  0.48562384    -0.09400
C1185       C  0.40337069  0.55901678  0.51857514     0.00200
C1186       C  0.42214401  0.56358991  0.53721280     0.00100
C1187       C  0.44251808  0.57077161  0.52173030    -0.13000
C1188       C  0.44455469  0.57418267  0.48871268     0.00500
C1189       C  0.38151536  0.54961888  0.53230516     0.39800
C1190       C  0.46598989  0.58200630  0.47423289     0.36500
C1191       C  0.41703150  0.60350210  0.44069024     0.36200
C1192       C  0.43994542  0.55077017  0.36373517     0.36900
N1193       N  0.36398146  0.54188322  0.54330484    -0.43900
N1194       N  0.48312145  0.58818291  0.46252567    -0.44300
N1195       N  0.44383437  0.53927348  0.34861201    -0.41700
N1196       N  0.41209649  0.61406968  0.45615327    -0.43100
H1197       H  0.42150635  0.60579402  0.37814728     0.13100
H1198       H  0.43636811  0.54947607  0.42607624     0.09600
H1199       H  0.39101476  0.55909594  0.47158504     0.10600
H1200       H  0.45705311  0.57418755  0.53552910     0.16400
C1201       C  0.57382992  0.26184980  0.03968373    -0.01800
C1202       C  0.59118679  0.28349665  0.04655565     0.06800
C1203       C  0.61095590  0.28625272  0.05974562    -0.07700
C1204       C  0.61350485  0.26799736  0.06638573     0.04300
C1205       C  0.59594645  0.24638559  0.06026688    -0.15000
C1206       C  0.57638338  0.24355580  0.04641616    -0.08300
C1207       C  0.58923207  0.30346032  0.03974114     0.05200
C1208       C  0.57158038  0.30521417  0.05271579    -0.09400
C1209       C  0.56864607  0.32323134  0.04544770     0.00200
C1210       C  0.58413192  0.34051396  0.02572091     0.00100
C1211       C  0.60216886  0.33896999  0.01370283    -0.13000
C1212       C  0.60464984  0.32065700  0.02009528     0.00500
C1213       C  0.54894624  0.32275491  0.05716331     0.39800
C1214       C  0.62270047  0.31952424  0.00508395     0.36500
C1215       C  0.55313113  0.25793296  0.02611763     0.36200
C1216       C  0.63435322  0.27180766  0.07934782     0.36900
N1217       N  0.53296701  0.32209606  0.06631773    -0.43900
N1218       N  0.63713283  0.31855964  0.99307155    -0.44300
N1219       N  0.65107003  0.27479207  0.08954482    -0.41700
N1220       N  0.53648055  0.25484122  0.01552131    -0.43100
H1221       H  0.56267115  0.22697995  0.04226991     0.13100
H1222       H  0.62438390  0.30274364  0.06520949     0.09600
H1223       H  0.55974149  0.29218235  0.06809074     0.10600
H1224       H  0.61437094  0.35205554  0.99880526     0.16400
C1225       C  0.71264020  0.39822970  0.83536631    -0.01800
C1226       C  0.70918756  0.40344640  0.86628112     0.06800
C1227       C  0.72568216  0.40894871  0.88946942    -0.07700
C1228       C  0.74575654  0.40976314  0.88197095     0.04300
C1229       C  0.74934481  0.40460496  0.85075162    -0.15000
C1230       C  0.73241531  0.39882696  0.82796590    -0.08300
C1231       C  0.68812395  0.40252553  0.87488287     0.05200
C1232       C  0.67326386  0.38541514  0.89469879    -0.09400
C1233       C  0.65298115  0.38356744  0.90298183     0.00200
C1234       C  0.64746714  0.39934392  0.89180466     0.00100
C1235       C  0.66200130  0.41598589  0.87094420    -0.13000
C1236       C  0.68224680  0.41770115  0.86246672     0.00500
C1237       C  0.63782597  0.36490300  0.92212618     0.39800
C1238       C  0.69697287  0.43546758  0.84167157     0.36500
C1239       C  0.69599899  0.39195040  0.81082957     0.36200
C1240       C  0.76234568  0.41639618  0.90656477     0.36900
N1241       N  0.62558753  0.34982670  0.93717478    -0.43900
N1242       N  0.70874240  0.44962935  0.82486918    -0.44300
N1243       N  0.77563381  0.42181828  0.92633744    -0.41700
N1244       N  0.68271701  0.38704742  0.79115732    -0.43100
H1245       H  0.73452503  0.39476419  0.80389953     0.13100
H1246       H  0.72294358  0.41287639  0.91339560     0.09600
H1247       H  0.67745491  0.37333061  0.90343754     0.10600
H1248       H  0.65795789  0.42818482  0.86226155     0.16400
C1249       C  0.50709008  0.51858569  0.79264454    -0.01800
C1250       C  0.51736836  0.52806334  0.82184028     0.06800
C1251       C  0.51561902  0.54576418  0.83416896    -0.07700
C1252       C  0.50306065  0.55354820  0.81858221     0.04300
C1253       C  0.49192221  0.54351612  0.78975269    -0.15000
C1254       C  0.49468639  0.52642524  0.77685660    -0.08300
C1255       C  0.52842492  0.51852450  0.84106106     0.05200
C1256       C  0.54802009  0.51981133  0.82998854    -0.09400
C1257       C  0.55765405  0.50912167  0.84619003     0.00200
C1258       C  0.54736908  0.49657184  0.87388120     0.00100
C1259       C  0.52847740  0.49656469  0.88577013    -0.13000
C1260       C  0.51896565  0.50727113  0.86966937     0.00500
C1261       C  0.57802522  0.51143933  0.83379387     0.39800
C1262       C  0.49874293  0.50537163  0.88205221     0.36500
C1263       C  0.50796388  0.49996163  0.77931194     0.36200
C1264       C  0.50178514  0.57156908  0.83328013     0.36900
N1265       N  0.59442272  0.51346089  0.82384787    -0.43900
N1266       N  0.48254719  0.50383363  0.89200005    -0.44300
N1267       N  0.50082974  0.58599006  0.84527700    -0.41700
N1268       N  0.50859491  0.48500528  0.76863803    -0.43100
H1269       H  0.48642666  0.51849155  0.75489788     0.13100
H1270       H  0.52364341  0.55313176  0.85658476     0.09600
H1271       H  0.55556820  0.52887656  0.80829879     0.10600
H1272       H  0.52033608  0.48721765  0.90696404     0.16400
C1273       C  0.48671802  0.45541686  0.08034351    -0.01800
C1274       C  0.47894395  0.46925090  0.06853917     0.06800
C1275       C  0.48041387  0.47352153  0.03566202    -0.07700
C1276       C  0.49022355  0.46510548  0.01496020     0.04300
C1277       C  0.49985542  0.45294919  0.02729247    -0.15000
C1278       C  0.49712998  0.44762074  0.05991962    -0.08300
C1279       C  0.47073434  0.48055351  0.09033113     0.05200
C1280       C  0.48400778  0.49266177  0.11630981    -0.09400
C1281       C  0.47753746  0.50418809  0.13685545     0.00200
C1282       C  0.45773973  0.50449846  0.13096308     0.00100
C1283       C  0.44441780  0.49243695  0.10504729    -0.13000
C1284       C  0.45054222  0.48028063  0.08508890     0.00500
C1285       C  0.49220829  0.51660751  0.16267633     0.39800
C1286       C  0.43573374  0.46758131  0.05958066     0.36500
C1287       C  0.48451966  0.44915564  0.11346884     0.36200
C1288       C  0.49034449  0.46958841  0.98143543     0.36900
N1289       N  0.50392725  0.52650573  0.18341812    -0.43900
N1290       N  0.42391357  0.45746133  0.03905585    -0.44300
N1291       N  0.49002877  0.47297207  0.95455361    -0.41700
N1292       N  0.48289105  0.44423613  0.14003318    -0.43100
H1293       H  0.50370245  0.43774159  0.06991150     0.13100
H1294       H  0.47447860  0.48406209  0.02614986     0.09600
H1295       H  0.49982118  0.49354239  0.12020832     0.10600
H1296       H  0.42920381  0.49262078  0.10027258     0.16400
C1297       C  0.60123879  0.31339807  0.50745613    -0.01800
C1298       C  0.59159530  0.30327260  0.53654246     0.06800
C1299       C  0.58152220  0.31222704  0.55562277    -0.07700
C1300       C  0.58081021  0.33109725  0.54591105     0.04300
C1301       C  0.59044088  0.34132064  0.51654364    -0.15000
C1302       C  0.60068623  0.33223406  0.49779800    -0.08300
C1303       C  0.59197721  0.28329861  0.54723330     0.05200
C1304       C  0.61209883  0.28548175  0.55764800    -0.09400
C1305       C  0.61326843  0.26696451  0.56748715     0.00200
C1306       C  0.59414695  0.24585237  0.56636930     0.00100
C1307       C  0.57411448  0.24357669  0.55532897    -0.13000
C1308       C  0.57285288  0.26218287  0.54604536     0.00500
C1309       C  0.63425099  0.26992669  0.57842594     0.39800
C1310       C  0.55183749  0.25930999  0.53551893     0.36500
C1311       C  0.61122107  0.30433324  0.48668817     0.36200
C1312       C  0.56941923  0.33897085  0.56602062     0.36900
N1313       N  0.65103222  0.27221997  0.58717196    -0.43900
N1314       N  0.53499883  0.25708069  0.52719597    -0.44300
N1315       N  0.56023580  0.34520667  0.58217598    -0.41700
N1316       N  0.61912676  0.29698522  0.47005027    -0.43100
H1317       H  0.60820444  0.33974069  0.47522268     0.13100
H1318       H  0.57404764  0.30431662  0.57802711     0.09600
H1319       H  0.62684927  0.30171449  0.55827733     0.10600
H1320       H  0.55932469  0.22736641  0.55495357     0.16400
C1321       C  0.67995885  0.40084519  0.40410934    -0.01800
C1322       C  0.68907650  0.40393209  0.37343737     0.06800
C1323       C  0.67752173  0.40602006  0.34752158    -0.07700
C1324       C  0.65731626  0.40560559  0.35193088     0.04300
C1325       C  0.64827776  0.40287716  0.38283536    -0.15000
C1326       C  0.65975130  0.40023546  0.40854706    -0.08300
C1327       C  0.71049578  0.40466581  0.36793142     0.05200
C1328       C  0.71022610  0.38566225  0.35663371    -0.09400
C1329       C  0.73003026  0.38588069  0.34997747     0.00200
C1330       C  0.75061871  0.40533268  0.35494355     0.00100
C1331       C  0.75091112  0.42413636  0.36736887    -0.13000
C1332       C  0.73102489  0.42398265  0.37362188     0.00500
C1333       C  0.72883250  0.36594495  0.33789997     0.39800
C1334       C  0.73198448  0.44408364  0.38434995     0.36500
C1335       C  0.69111538  0.39833511  0.43140112     0.36200
C1336       C  0.64601573  0.40742040  0.32428636     0.36900
N1337       N  0.72784990  0.34993791  0.32832829    -0.43900
N1338       N  0.73267891  0.46020399  0.39275494    -0.44300
N1339       N  0.63695752  0.40882199  0.30208014    -0.41700
N1340       N  0.70007667  0.39635520  0.45327244    -0.43100
H1341       H  0.65318986  0.39819015  0.43246595     0.13100
H1342       H  0.68438984  0.40808879  0.32380158     0.09600
H1343       H  0.69447695  0.37072480  0.35255455     0.10600
H1344       H  0.76662138  0.43927090  0.37058609     0.16400
C1345       C  0.56051659  0.42612441  0.74040052    -0.01800
C1346       C  0.57629208  0.42407565  0.72180405     0.06800
C1347       C  0.59459916  0.42481304  0.73700653    -0.07700
C1348       C  0.59691904  0.42659232  0.77012979     0.04300
C1349       C  0.58093030  0.42820894  0.78885828    -0.15000
C1350       C  0.56308945  0.42842719  0.77355984    -0.08300
C1351       C  0.57411354  0.42108605  0.68656308     0.05200
C1352       C  0.57330887  0.43724753  0.66762197    -0.09400
C1353       C  0.57195098  0.43533193  0.63437470     0.00200
C1354       C  0.57147696  0.41695205  0.61937637     0.00100
C1355       C  0.57253039  0.40092720  0.63832074    -0.13000
C1356       C  0.57369685  0.40275915  0.67155247     0.00500
C1357       C  0.57215469  0.45300598  0.61621273     0.39800
C1358       C  0.57397340  0.38534518  0.68975272     0.36500
C1359       C  0.54101043  0.42483541  0.72623751     0.36200
C1360       C  0.61610523  0.42708839  0.78415110     0.36900
N1361       N  0.57241401  0.46720868  0.60164579    -0.43900
N1362       N  0.57426278  0.37143200  0.70435485    -0.44300
N1363       N  0.63146836  0.42742995  0.79531691    -0.41700
N1364       N  0.52533744  0.42374388  0.71493113    -0.43100
H1365       H  0.55065000  0.42953900  0.78765388     0.13100
H1366       H  0.60707603  0.42378622  0.72288295     0.09600
H1367       H  0.57412021  0.45162189  0.67885066     0.10600
H1368       H  0.57206003  0.38669252  0.62714992     0.16400
C1369       C  0.58133063  0.41790540  0.23859089    -0.01800
C1370       C  0.56639177  0.42202388  0.22142549     0.06800
C1371       C  0.55270134  0.42795610  0.23791194    -0.07700
C1372       C  0.55384468  0.43017514  0.27103864     0.04300
C1373       C  0.56914616  0.42643353  0.28859769    -0.15000
C1374       C  0.58264282  0.42016895  0.27178045    -0.08300
C1375       C  0.56499883  0.42068852  0.18617493     0.05200
C1376       C  0.55683516  0.40010382  0.17119042    -0.09400
C1377       C  0.55474534  0.39820697  0.13798791     0.00200
C1378       C  0.56111491  0.41726318  0.11915614     0.00100
C1379       C  0.56912698  0.43780578  0.13438545    -0.13000
C1380       C  0.57107264  0.43964047  0.16749248     0.00500
C1381       C  0.54494149  0.37639690  0.12417061     0.39800
C1382       C  0.57966210  0.46122595  0.18174315     0.36500
C1383       C  0.59584783  0.41185911  0.22254443     0.36200
C1384       C  0.53895686  0.43627690  0.28586476     0.36900
N1385       N  0.53691115  0.35885900  0.11322993    -0.43900
N1386       N  0.58649544  0.47851318  0.19316550    -0.44300
N1387       N  0.52696771  0.44113941  0.29758857    -0.41700
N1388       N  0.60743747  0.40698268  0.20961194    -0.43100
H1389       H  0.59441028  0.41712324  0.28448471     0.13100
H1390       H  0.54105487  0.43093977  0.22469946     0.09600
H1391       H  0.55171963  0.38542634  0.18556198     0.10600
H1392       H  0.57411759  0.45260177  0.12035213     0.16400
C1393       C  0.50656338  0.51918958  0.29955448    -0.01800
C1394       C  0.51812941  0.52980753  0.32763532     0.06800
C1395       C  0.52018500  0.55022903  0.33585007    -0.07700
C1396       C  0.51031821  0.55973864  0.31730813     0.04300
C1397       C  0.49795470  0.54870623  0.28970024    -0.15000
C1398       C  0.49677117  0.52867150  0.28092832    -0.08300
C1399       C  0.52804223  0.51970588  0.34857331     0.05200
C1400       C  0.54418681  0.51544727  0.33598213    -0.09400
C1401       C  0.55222271  0.50384092  0.35352038     0.00200
C1402       C  0.54409664  0.49619484  0.38453782     0.00100
C1403       C  0.52906458  0.50181859  0.39793124    -0.13000
C1404       C  0.52097132  0.51337532  0.38027464     0.00500
C1405       C  0.56884017  0.50008188  0.33901950     0.39800
C1406       C  0.50451791  0.51742813  0.39466344     0.36500
C1407       C  0.50357977  0.49797426  0.29008899     0.36200
C1408       C  0.51337577  0.58087252  0.32730642     0.36900
N1409       N  0.58218475  0.49710947  0.32740777    -0.43900
N1410       N  0.49137357  0.52068120  0.40633068    -0.44300
N1411       N  0.51594300  0.59783508  0.33544796    -0.41700
N1412       N  0.50120631  0.48098782  0.28249066    -0.43100
H1413       H  0.48734296  0.51978671  0.26008755     0.13100
H1414       H  0.52944422  0.55872056  0.35701972     0.09600
H1415       H  0.55017266  0.52080073  0.31198387     0.10600
H1416       H  0.52268445  0.49616846  0.42169258     0.16400
C1417       C  0.45410730  0.48226931  0.58188409    -0.01800
C1418       C  0.46653623  0.47343315  0.59534008     0.06800
C1419       C  0.47009753  0.47498826  0.62831011    -0.07700
C1420       C  0.46263398  0.48630988  0.64766253     0.04300
C1421       C  0.45151718  0.49664261  0.63385193    -0.15000
C1422       C  0.44672711  0.49365889  0.60104600    -0.08300
C1423       C  0.47806937  0.46484461  0.57512157     0.05200
C1424       C  0.49417645  0.47941548  0.55370579    -0.09400
C1425       C  0.50692095  0.47293917  0.53592642     0.00200
C1426       C  0.50375955  0.45136511  0.53956596     0.00100
C1427       C  0.48728882  0.43663007  0.56062650    -0.13000
C1428       C  0.47440893  0.44315663  0.57820326     0.00500
C1429       C  0.52398499  0.48932463  0.51567251     0.39800
C1430       C  0.45739533  0.42731125  0.59898783     0.36500
C1431       C  0.44908824  0.48023733  0.54830130     0.36200
C1432       C  0.46758149  0.48768748  0.68119082     0.36900
N1433       N  0.53765749  0.50247414  0.49948961    -0.43900
N1434       N  0.44369009  0.41462339  0.61559202    -0.44300
N1435       N  0.47157308  0.48845918  0.70803393    -0.41700
N1436       N  0.44506098  0.47863151  0.52139482    -0.43100
H1437       H  0.43775607  0.50087387  0.58993414     0.13100
H1438       H  0.47962882  0.46816060  0.63878604     0.09600
H1439       H  0.49726693  0.49621911  0.55158374     0.10600
H1440       H  0.48454723  0.42000547  0.56351638     0.16400
loop_ 
_geom_bond_atom_site_label_1 
_geom_bond_atom_site_label_2 
_geom_bond_distance 
_geom_bond_site_symmetry_2 
_ccdc_geom_bond_type 
O1           Mg3   2.144       .  S
O1           Mg9   2.139       .  S
O1           C36   1.238       .  S
C2           O15   1.235       .  S
C2           O39   1.268       .  A
C2           H41   1.081       .  S
Mg3          O32   2.151       .  S
Mg3          O47   2.327       .  S
Mg3          O43   2.276       .  S
Mg3          O14   2.306       .  S
O4          Mg46   2.150       .  S
O4          Mg29   2.140       .  S
O4           C25   1.236       .  S
O5           C36   1.273       .  A
O5          Mg29   2.306       .  S
C6            O8   1.272       .  A
C6           O20   1.274       .  A
C6         C1426   1.486       .  S
O7           C35   1.273       .  A
O7           Mg9   2.305       .  S
O8          Mg40   2.265       .  S
Mg9          O15   2.112       .  S
Mg9          O23   2.222       .  S
Mg9          O11   2.289       .  S
C10          O48   1.274       .  A
C10          O16   1.275       .  A
C10        C1402   1.491       .  S
O11          C18   1.274       .  A
H12          C25   1.081       .  S
C13          O27   1.237       .  S
C13          O28   1.271       .  A
C13          H38   1.080       .  S
O14          C37   1.271       .  A
O15         Mg29   2.141       .  S
O16         Mg46   2.299       .  S
C17          O30   1.272       .  A
C17          O22   1.280       .  A
C17        C1373   1.496       .  S
C18          O45   1.276       .  A
C18        C1325   1.491       .  S
Mg19         O26   2.151       .  S
Mg19         O27   2.152       .  S
Mg19         O20   2.297       .  S
Mg19         O21   2.294       .  S
Mg19         O48   2.285       .  S
O21          C25   1.269       .  A
O22         Mg29   2.328       .  S
O23          C42   1.268       .  A
O24          C44   1.275       .  A
O24         Mg40   2.310       .  S
O26         Mg40   2.156       .  S
O26          C37   1.236       .  S
O27         Mg46   2.141       .  S
O28         Mg40   2.299       .  S
Mg29         O45   2.296       .  S
O30         Mg46   2.250       .  S
H31          C36   1.079       .  S
O32         Mg40   2.144       .  S
O32          C35   1.239       .  S
H33          C35   1.081       .  S
H34          C37   1.081       .  S
O39         Mg46   2.285       .  S
C42          O47   1.277       .  A
C42        C1301   1.487       .  S
O43          C44   1.274       .  A
C44        C1354   1.486       .  S
O49         Mg51   2.148       .  S
O49         Mg57   2.139       .  S
O49          C84   1.238       .  S
C50          O63   1.235       .  S
C50          O87   1.267       .  A
C50          H89   1.081       .  S
Mg51         O80   2.146       .  S
Mg51         O95   2.325       .  S
Mg51         O91   2.259       .  S
Mg51         O62   2.310       .  S
O52         Mg94   2.156       .  S
O52         Mg77   2.133       .  S
O52          C73   1.236   1_554  S
O53          C84   1.272       .  A
O53         Mg77   2.305   1_556  S
C54          O56   1.273       .  A
C54          O68   1.276       .  A
C54        C1258   1.491       .  S
O55          C83   1.273       .  A
O55         Mg57   2.310       .  S
O56         Mg88   2.267       .  S
Mg57         O63   2.107   1_556  S
Mg57         O71   2.223       .  S
Mg57         O59   2.292       .  S
C58          O96   1.274   1_554  A
C58          O64   1.273       .  A
C58        C1277   1.495       .  S
O59          C66   1.275   1_556  A
H60          C73   1.081       .  S
C61          O75   1.236       .  S
C61          O76   1.271       .  A
C61          H86   1.080       .  S
O62          C85   1.272       .  A
O63         Mg77   2.147       .  S
O64         Mg94   2.277       .  S
C65          O78   1.273       .  A
C65          O70   1.278       .  A
C65        C1378   1.485       .  S
C66          O93   1.274       .  A
C66        C1210   1.494       .  S
Mg67         O74   2.155       .  S
Mg67         O75   2.151       .  S
Mg67         O68   2.298       .  S
Mg67         O69   2.290       .  S
Mg67         O96   2.293       .  S
O69          C73   1.269       .  A
O70         Mg77   2.317       .  S
O71          C90   1.267       .  A
O72          C92   1.278       .  A
O72         Mg88   2.331       .  S
O74         Mg88   2.152       .  S
O74          C85   1.236       .  S
O75         Mg94   2.143   1_556  S
O76         Mg88   2.303       .  S
Mg77         O93   2.286       .  S
O78         Mg94   2.255       .  S
H79          C84   1.080       .  S
O80         Mg88   2.149       .  S
O80          C83   1.238       .  S
H81          C83   1.081       .  S
H82          C85   1.080       .  S
O87         Mg94   2.279       .  S
C90          O95   1.276       .  A
C90        C1234   1.478       .  S
O91          C92   1.272       .  A
C92        C1349   1.486       .  S
O97         Mg99   2.139       .  S
O97        Mg105   2.139       .  S
O97         C132   1.238       .  S
C98         O111   1.236       .  S
C98         O135   1.267       .  A
C98         H137   1.081       .  S
Mg99        O128   2.159       .  S
Mg99        O143   2.339       .  S
Mg99        O139   2.279       .  S
Mg99        O110   2.314       .  S
O100       Mg142   2.152       .  S
O100       Mg125   2.138       .  S
O100        C121   1.235       .  S
O101        C132   1.272       .  A
O101       Mg125   2.298       .  S
C102        O104   1.271       .  A
C102        O116   1.279       .  A
C102       C1397   1.498       .  S
O103        C131   1.273       .  A
O103       Mg105   2.305       .  S
O104       Mg136   2.263       .  S
Mg105       O111   2.098       .  S
Mg105       O119   2.211       .  S
Mg105       O107   2.277       .  S
C106        O144   1.276       .  A
C106        O112   1.275       .  A
C106       C1282   1.482       .  S
O107        C114   1.271       .  A
H108        C121   1.081       .  S
C109        O123   1.237       .  S
C109        O124   1.272       .  A
C109        H134   1.080       .  S
O110        C133   1.273       .  A
O111       Mg125   2.146       .  S
O112       Mg142   2.297       .  S
C113        O126   1.275       .  A
C113        O118   1.278       .  A
C113       C1157   1.492       .  S
C114        O141   1.277       .  A
C114       C1133   1.497       .  S
Mg115       O122   2.162       .  S
Mg115       O123   2.155       .  S
Mg115       O116   2.330       .  S
Mg115       O117   2.294       .  S
Mg115       O144   2.286       .  S
O117        C121   1.269       .  A
O118       Mg125   2.308       .  S
O119        C138   1.266       .  A
O120        C140   1.275       .  A
O120       Mg136   2.306       .  S
O122       Mg136   2.153       .  S
O122        C133   1.236       .  S
O123       Mg142   2.164       .  S
O124       Mg136   2.307       .  S
Mg125       O141   2.307       .  S
O126       Mg142   2.275       .  S
H127        C132   1.080       .  S
O128       Mg136   2.149       .  S
O128        C131   1.239       .  S
H129        C131   1.081       .  S
H130        C133   1.081       .  S
O135       Mg142   2.278       .  S
C138        O143   1.278       .  A
C138       C1114   1.488       .  S
O139        C140   1.274       .  A
C140       C1181   1.493       .  S
O145       Mg147   2.127       .  S
O145       Mg153   2.135       .  S
O145        C180   1.239       .  S
C146        O159   1.235       .  S
C146        O183   1.267       .  A
C146        H185   1.081       .  S
Mg147       O176   2.148       .  S
Mg147       O191   2.342       .  S
Mg147       O187   2.248       .  S
Mg147       O158   2.314       .  S
O148       Mg190   2.154       .  S
O148       Mg173   2.134       .  S
O148        C169   1.236       .  S
O149        C180   1.272       .  A
O149       Mg173   2.299       .  S
C150        O152   1.271       .  A
C150        O164   1.277       .  A
C150       C1253   1.494       .  S
O151        C179   1.272       .  A
O151       Mg153   2.301       .  S
O152       Mg184   2.258       .  S
Mg153       O159   2.115       .  S
Mg153       O167   2.237       .  S
Mg153       O155   2.264       .  S
C154        O192   1.275       .  A
C154        O160   1.276       .  A
C154       C1421   1.494       .  S
O155        C162   1.271       .  A
H156        C169   1.081       .  S
C157        O171   1.237       .  S
C157        O172   1.272       .  A
C157        H182   1.080       .  S
O158        C181   1.273       .  A
O159       Mg173   2.149       .  S
O160       Mg190   2.292       .  S
C161        O174   1.277       .  A
C161        O166   1.279       .  A
C161       C1186   1.492       .  S
C162        O189   1.276       .  A
C162       C1085   1.484       .  S
Mg163       O170   2.162       .  S
Mg163       O171   2.158       .  S
Mg163       O164   2.310       .  S
Mg163       O165   2.292       .  S
Mg163       O192   2.289       .  S
O165        C169   1.269       .  A
O166       Mg173   2.315       .  S
O167        C186   1.268       .  A
O168        C188   1.278       .  A
O168       Mg184   2.325       .  S
O170       Mg184   2.153       .  S
O170        C181   1.237       .  S
O171       Mg190   2.155       .  S
O172       Mg184   2.305       .  S
Mg173       O189   2.300       .  S
O174       Mg190   2.287       .  S
H175        C180   1.080       .  S
O176       Mg184   2.139       .  S
O176        C179   1.238       .  S
H177        C179   1.081       .  S
H178        C181   1.081       .  S
O183       Mg190   2.282       .  S
C186        O191   1.278       .  A
C186       C1061   1.490       .  S
O187        C188   1.270       .  A
C188       C1162   1.490       .  S
O193       Mg195   2.147       .  S
O193       Mg201   2.143       .  S
O193        C228   1.239       .  S
C194        O207   1.235       .  S
C194        O231   1.267       .  A
C194        H233   1.081       .  S
Mg195       O224   2.150       .  S
Mg195       O239   2.338       .  S
Mg195       O235   2.285       .  S
Mg195       O206   2.314       .  S
O196       Mg238   2.156       .  S
O196       Mg221   2.141       .  S
O196        C217   1.236   1_556  S
O197        C228   1.272       .  A
O197       Mg221   2.301   1_554  S
C198        O200   1.270       .  A
C198        O212   1.279       .  A
C198        C970   1.497       .  S
O199        C227   1.272       .  A
O199       Mg201   2.303       .  S
O200       Mg232   2.251       .  S
Mg201       O207   2.109   1_554  S
Mg201       O215   2.224       .  S
Mg201       O203   2.283       .  S
C202        O240   1.276   1_556  A
C202        O208   1.275       .  A
C202       C1037   1.483       .  S
O203        C210   1.273   1_554  A
H204        C217   1.081   1_556  S
C205        O219   1.235       .  S
C205        O220   1.270       .  A
C205        H230   1.080       .  S
O206        C229   1.273       .  A
O207       Mg221   2.145       .  S
O208       Mg238   2.295       .  S
C209        O222   1.276       .  A
C209        O214   1.277       .  A
C209        C989   1.487       .  S
C210        O237   1.276       .  A
C210        C941   1.495       .  S
Mg211       O218   2.162       .  S
Mg211       O219   2.157       .  S
Mg211       O212   2.332       .  S
Mg211       O213   2.297       .  S
Mg211       O240   2.279       .  S
O213        C217   1.270       .  A
O214       Mg221   2.309       .  S
O215        C234   1.268       .  A
O216        C236   1.273       .  A
O216       Mg232   2.299       .  S
O218       Mg232   2.161       .  S
O218        C229   1.238       .  S
O219       Mg238   2.160   1_554  S
O220       Mg232   2.299       .  S
Mg221       O237   2.301       .  S
O222       Mg238   2.284       .  S
H223        C228   1.080       .  S
O224       Mg232   2.139       .  S
O224        C227   1.237       .  S
H225        C227   1.081       .  S
H226        C229   1.081       .  S
O231       Mg238   2.279       .  S
C234        O239   1.278       .  A
C234       C1138   1.486       .  S
O235        C236   1.275       .  A
C236       C1013   1.497       .  S
O241       Mg243   2.137       .  S
O241       Mg249   2.134       .  S
O241        C276   1.239       .  S
C242        O255   1.236       .  S
C242        O279   1.268       .  A
C242        H281   1.081       .  S
Mg243       O272   2.145       .  S
Mg243       O287   2.342       .  S
Mg243       O283   2.272       .  S
Mg243       O254   2.314       .  S
O244       Mg286   2.154       .  S
O244       Mg269   2.138       .  S
O244        C265   1.236       .  S
O245        C276   1.273       .  A
O245       Mg269   2.303       .  S
C246        O248   1.270       .  A
C246        O260   1.279       .  A
C246        C898   1.495       .  S
O247        C275   1.272       .  A
O247       Mg249   2.303       .  S
O248       Mg280   2.255       .  S
Mg249       O255   2.114       .  S
Mg249       O263   2.230       .  S
Mg249       O251   2.259       .  S
C250        O288   1.276       .  A
C250        O256   1.277       .  A
C250        C917   1.486       .  S
O251        C258   1.270       .  A
H252        C265   1.081       .  S
C253        O267   1.236       .  S
C253        O268   1.270       .  A
C253        H278   1.080       .  S
O254        C277   1.274       .  A
O255       Mg269   2.150       .  S
O256       Mg286   2.311       .  S
C257        O270   1.276       .  A
C257        O262   1.278       .  A
C257       C1018   1.486       .  S
C258        O285   1.275       .  A
C258        C869   1.494       .  S
Mg259       O266   2.161       .  S
Mg259       O267   2.156       .  S
Mg259       O260   2.330       .  S
Mg259       O261   2.296       .  S
Mg259       O288   2.281       .  S
O261        C265   1.269       .  A
O262       Mg269   2.315       .  S
O263        C282   1.267       .  A
O264        C284   1.273       .  A
O264       Mg280   2.297       .  S
O266       Mg280   2.158       .  S
O266        C277   1.238       .  S
O267       Mg286   2.153       .  S
O268       Mg280   2.297       .  S
Mg269       O285   2.300       .  S
O270       Mg286   2.281       .  S
H271        C276   1.081       .  S
O272       Mg280   2.136       .  S
O272        C275   1.237       .  S
H273        C275   1.081       .  S
H274        C277   1.081       .  S
O279       Mg286   2.285       .  S
C282        O287   1.278       .  A
C282       C1090   1.475       .  S
O283        C284   1.273       .  A
C284        C994   1.493       .  S
O289       Mg291   2.146       .  S
O289       Mg297   2.139       .  S
O289        C324   1.239       .  S
C290        O303   1.236       .  S
C290        O327   1.269       .  A
C290        H329   1.081       .  S
Mg291       O320   2.150       .  S
Mg291       O335   2.355       .  S
Mg291       O331   2.279       .  S
Mg291       O302   2.314       .  S
O292       Mg334   2.150       .  S
O292       Mg317   2.137       .  S
O292        C313   1.236       .  S
O293        C324   1.273       .  A
O293       Mg317   2.305       .  S
C294        O296   1.272       .  A
C294        O308   1.278       .  A
C294        C922   1.498       .  S
O295        C323   1.272       .  A
O295       Mg297   2.307       .  S
O296       Mg328   2.264       .  S
Mg297       O303   2.121       .  S
Mg297       O311   2.234       .  S
Mg297       O299   2.288       .  S
C298        O336   1.276       .  A
C298        O304   1.276       .  A
C298        C965   1.493       .  S
O299        C306   1.274       .  A
H300        C313   1.081       .  S
C301        O315   1.236       .  S
C301        O316   1.270       .  A
C301        H326   1.080       .  S
O302        C325   1.273       .  A
O303       Mg317   2.146       .  S
O304       Mg334   2.299       .  S
C305        O318   1.275       .  A
C305        O310   1.276       .  A
C305        C845   1.488       .  S
C306        O333   1.273       .  A
C306        C797   1.492       .  S
Mg307       O314   2.160       .  S
Mg307       O315   2.159       .  S
Mg307       O308   2.325       .  S
Mg307       O309   2.293       .  S
Mg307       O336   2.289       .  S
O309        C313   1.269       .  A
O310       Mg317   2.306       .  S
O311        C330   1.268       .  A
O312        C332   1.274       .  A
O312       Mg328   2.300       .  S
O314       Mg328   2.155       .  S
O314        C325   1.238       .  S
O315       Mg334   2.149       .  S
O316       Mg328   2.297       .  S
Mg317       O333   2.287       .  S
O318       Mg334   2.282       .  S
H319        C324   1.080       .  S
O320       Mg328   2.151       .  S
O320        C323   1.237       .  S
H321        C323   1.081       .  S
H322        C325   1.081       .  S
O327       Mg334   2.291       .  S
C330        O335   1.280       .  A
C330       C1330   1.479       .  S
O331        C332   1.274       .  A
C332        C821   1.488       .  S
O337       Mg339   2.142       .  S
O337       Mg345   2.142       .  S
O337        C372   1.240       .  S
C338        O351   1.236       .  S
C338        O375   1.268       .  A
C338        H377   1.081       .  S
Mg339       O368   2.153       .  S
Mg339       O383   2.360       .  S
Mg339       O379   2.285       .  S
Mg339       O350   2.317       .  S
O340       Mg382   2.151       .  S
O340       Mg365   2.133       .  S
O340        C361   1.235       .  S
O341        C372   1.273       .  A
O341       Mg365   2.301       .  S
C342        O344   1.269       .  A
C342        O356   1.277       .  A
C342       C1042   1.496       .  S
O343        C371   1.271       .  A
O343       Mg345   2.298       .  S
O344       Mg376   2.246       .  S
Mg345       O351   2.107       .  S
Mg345       O359   2.207       .  S
Mg345       O347   2.286       .  S
C346        O384   1.277       .  A
C346        O352   1.278       .  A
C346        C893   1.490       .  S
O347        C354   1.272       .  A
H348        C361   1.081       .  S
C349        O363   1.236       .  S
C349        O364   1.271       .  A
C349        H374   1.080       .  S
O350        C373   1.274       .  A
O351       Mg365   2.140       .  S
O352       Mg382   2.312       .  S
C353        O366   1.277       .  A
C353        O358   1.275       .  A
C353        C826   1.495       .  S
C354        O381   1.274       .  A
C354        C773   1.489       .  S
Mg355       O362   2.177       .  S
Mg355       O363   2.153       .  S
Mg355       O356   2.318       .  S
Mg355       O357   2.293       .  S
Mg355       O384   2.296       .  S
O357        C361   1.269       .  A
O358       Mg365   2.299       .  S
O359        C378   1.268       .  A
O360        C380   1.275       .  A
O360       Mg376   2.305       .  S
O362       Mg376   2.162       .  S
O362        C373   1.238       .  S
O363       Mg382   2.151       .  S
O364       Mg376   2.300       .  S
Mg365       O381   2.286       .  S
O366       Mg382   2.287       .  S
H367        C372   1.080       .  S
O368       Mg376   2.137       .  S
O368        C371   1.237       .  S
H369        C371   1.081       .  S
H370        C373   1.080       .  S
O375       Mg382   2.283       .  S
C378        O383   1.281       .  A
C378       C1229   1.496       .  S
O379        C380   1.275       .  A
C380        C850   1.491       .  S
O385       Mg387   2.139       .  S
O385       Mg393   2.131       .  S
O385        C420   1.238       .  S
C386        O399   1.235       .  S
C386        O423   1.267       .  A
C386        H425   1.081       .  S
Mg387       O416   2.150       .  S
Mg387       O431   2.348       .  S
Mg387       O427   2.265       .  S
Mg387       O398   2.312       .  S
O388       Mg430   2.156       .  S
O388       Mg413   2.138       .  S
O388        C409   1.235       .  S
O389        C420   1.272       .  A
O389       Mg413   2.299       .  S
C390        O392   1.274       .  A
C390        O404   1.277       .  A
C390        C754   1.498       .  S
O391        C419   1.274       .  A
O391       Mg393   2.310       .  S
O392       Mg424   2.270       .  S
Mg393       O399   2.107       .  S
Mg393       O407   2.218       .  S
Mg393       O395   2.273       .  S
C394        O432   1.275       .  A
C394        O400   1.273       .  A
C394        C730   1.480       .  S
O395        C402   1.271       .  A
H396        C409   1.081       .  S
C397        O411   1.236       .  S
C397        O412   1.270       .  A
C397        H422   1.080       .  S
O398        C421   1.273       .  A
O399       Mg413   2.147       .  S
O400       Mg430   2.282       .  S
C401        O414   1.273       .  A
C401        O406   1.279       .  A
C401        C701   1.484       .  S
C402        O429   1.277       .  A
C402        C802   1.489       .  S
Mg403       O410   2.157       .  S
Mg403       O411   2.166       .  S
Mg403       O404   2.321       .  S
Mg403       O405   2.289       .  S
Mg403       O432   2.284       .  S
O405        C409   1.268       .  A
O406       Mg413   2.319       .  S
O407        C426   1.266       .  A
O408        C428   1.275   1_554  A
O408       Mg424   2.309       .  S
O410       Mg424   2.156       .  S
O410        C421   1.238       .  S
O411       Mg430   2.151       .  S
O412       Mg424   2.299       .  S
Mg413       O429   2.302       .  S
O414       Mg430   2.259       .  S
H415        C420   1.080       .  S
O416       Mg424   2.149       .  S
O416        C419   1.239       .  S
H417        C419   1.080       .  S
H418        C421   1.081       .  S
O423       Mg430   2.281       .  S
C426        O431   1.279       .  A
C426       C1205   1.475       .  S
O427        C428   1.273   1_554  A
C428        C677   1.487       .  S
O433       Mg435   2.127       .  S
O433       Mg441   2.134       .  S
O433        C468   1.237       .  S
C434        O447   1.236       .  S
C434        O471   1.269       .  A
C434        H473   1.081       .  S
Mg435       O464   2.152       .  S
Mg435       O479   2.315       .  S
Mg435       O475   2.256       .  S
Mg435       O446   2.305       .  S
O436       Mg478   2.149       .  S
O436       Mg461   2.145       .  S
O436        C457   1.236       .  S
O437        C468   1.271       .  A
O437       Mg461   2.296       .  S
C438        O440   1.270       .  A
C438        O452   1.278       .  A
C438        C653   1.483       .  S
O439        C467   1.273       .  A
O439       Mg441   2.305       .  S
O440       Mg472   2.245       .  S
Mg441       O447   2.114       .  S
Mg441       O455   2.231       .  S
Mg441       O443   2.274       .  S
C442        O480   1.274       .  A
C442        O448   1.277       .  A
C442        C634   1.493       .  S
O443        C450   1.272       .  A
H444        C457   1.080       .  S
C445        O459   1.236       .  S
C445        O460   1.270       .  A
C445        H470   1.080       .  S
O446        C469   1.272       .  A
O447       Mg461   2.149       .  S
O448       Mg478   2.304       .  S
C449        O462   1.274       .  A
C449        O454   1.279       .  A
C449        C682   1.488       .  S
C450        O477   1.276       .  A
C450        C778   1.497       .  S
Mg451       O458   2.153       .  S
Mg451       O459   2.153       .  S
Mg451       O452   2.330       .  S
Mg451       O453   2.298       .  S
Mg451       O480   2.278       .  S
O453        C457   1.270       .  A
O454       Mg461   2.316       .  S
O455        C474   1.267       .  A
O456        C476   1.274       .  A
O456       Mg472   2.303       .  S
O458       Mg472   2.154       .  S
O458        C469   1.237       .  S
O459       Mg478   2.151       .  S
O460       Mg472   2.301       .  S
Mg461       O477   2.302       .  S
O462       Mg478   2.270       .  S
H463        C468   1.080       .  S
O464       Mg472   2.136       .  S
O464        C467   1.239       .  S
H465        C467   1.080       .  S
H466        C469   1.081       .  S
O471       Mg478   2.288       .  S
C474        O479   1.274       .  A
C474       C1306   1.466       .  S
O475        C476   1.271       .  A
C476        C706   1.483       .  S
O481       Mg483   2.136       .  S
O481       Mg489   2.139       .  S
O481        C516   1.238       .  S
C482        O495   1.235       .  S
C482        O519   1.267       .  A
C482        H521   1.081       .  S
Mg483       O512   2.143       .  S
Mg483       O527   2.329       .  S
Mg483       O523   2.263       .  S
Mg483       O494   2.316       .  S
O484       Mg526   2.156       .  S
O484       Mg509   2.133       .  S
O484        C505   1.236       .  S
O485        C516   1.271       .  A
O485       Mg509   2.299       .  S
C486        O488   1.270       .  A
C486        O500   1.278       .  A
C486        C725   1.491       .  S
O487        C515   1.272       .  A
O487       Mg489   2.306       .  S
O488       Mg520   2.253       .  S
Mg489       O495   2.106       .  S
Mg489       O503   2.225       .  S
Mg489       O491   2.268       .  S
C490        O528   1.276       .  A
C490        O496   1.273       .  A
C490        C658   1.481       .  S
O491        C498   1.270       .  A
H492        C505   1.081       .  S
C493        O507   1.236       .  S
C493        O508   1.270       .  A
C493        H518   1.079       .  S
O494        C517   1.274       .  A
O495       Mg509   2.149       .  S
O496       Mg526   2.278       .  S
C497        O510   1.275       .  A
C497        O502   1.275       .  A
C497        C586   1.490       .  S
C498        O525   1.274       .  A
C498        C874   1.483       .  S
Mg499       O506   2.161       .  S
Mg499       O507   2.160       .  S
Mg499       O500   2.326       .  S
Mg499       O501   2.292       .  S
Mg499       O528   2.289       .  S
O501        C505   1.269       .  A
O502       Mg509   2.299       .  S
O503        C522   1.266       .  A
O504        C524   1.274       .  A
O504       Mg520   2.304       .  S
O506       Mg520   2.154       .  S
O506        C517   1.238       .  S
O507       Mg526   2.150       .  S
O508       Mg520   2.298       .  S
Mg509       O525   2.278       .  S
O510       Mg526   2.279       .  S
H511        C516   1.080       .  S
O512       Mg520   2.143       .  S
O512        C515   1.237       .  S
H513        C515   1.081       .  S
H514        C517   1.081       .  S
O519       Mg526   2.278       .  S
C522        O527   1.276       .  A
C522       C1109   1.471       .  S
O523        C524   1.271       .  A
C524        C610   1.479       .  S
O529       Mg531   2.138       .  S
O529       Mg537   2.135       .  S
O529        C564   1.238       .  S
C530        O543   1.236       .  S
C530        O567   1.269       .  A
C530        H569   1.081       .  S
Mg531       O560   2.154       .  S
Mg531       O575   2.355       .  S
Mg531       O571   2.265       .  S
Mg531       O542   2.316       .  S
O532       Mg574   2.152       .  S
O532       Mg557   2.136       .  S
O532        C553   1.235       .  S
O533        C564   1.272       .  A
O533       Mg557   2.302       .  S
C534        O536   1.275       .  A
C534        O548   1.276       .  A
C534        C629   1.493       .  S
O535        C563   1.274       .  A
O535       Mg537   2.313       .  S
O536       Mg568   2.285       .  S
Mg537       O543   2.115       .  S
Mg537       O551   2.233       .  S
Mg537       O539   2.290       .  S
C538        O576   1.277       .  A
C538        O544   1.276       .  A
C538        C749   1.492       .  S
O539        C546   1.273       .  A
H540        C553   1.081       .  S
C541        O555   1.237       .  S
C541        O556   1.271       .  A
C541        H566   1.079       .  S
O542        C565   1.273       .  A
O543       Mg557   2.148       .  S
O544       Mg574   2.306       .  S
C545        O558   1.275   1_554  A
C545        O550   1.276   1_554  A
C545        C605   1.494       .  S
C546        O573   1.275       .  A
C546        C946   1.492       .  S
Mg547       O554   2.168       .  S
Mg547       O555   2.151       .  S
Mg547       O548   2.308       .  S
Mg547       O549   2.290       .  S
Mg547       O576   2.299       .  S
O549        C553   1.268       .  A
O550       Mg557   2.302       .  S
O551        C570   1.268       .  A
O552        C572   1.277       .  A
O552       Mg568   2.322       .  S
O554       Mg568   2.158       .  S
O554        C565   1.237       .  S
O555       Mg574   2.153       .  S
O556       Mg568   2.304       .  S
Mg557       O573   2.294       .  S
O558       Mg574   2.274       .  S
H559        C564   1.080       .  S
O560       Mg568   2.163       .  S
O560        C563   1.239       .  S
H561        C563   1.081       .  S
H562        C565   1.081       .  S
O567       Mg574   2.285       .  S
C570        O575   1.280       .  A
C570       C1066   1.488       .  S
O571        C572   1.273       .  A
C572        C581   1.494       .  S
C577        C578   1.411       .  A
C577        C582   1.402       .  A
C577        C591   1.444       .  S
C578        C583   1.493       .  S
C578        C579   1.404       .  A
C579        H598   1.085       .  S
C579        C580   1.403       .  A
C580        C581   1.418       .  A
C580        C592   1.444       .  S
C581        C582   1.409       .  A
C582        H597   1.084       .  S
C583        C584   1.404       .  A
C583        C588   1.412       .  A
C584        H599   1.085       .  S
C584        C585   1.402       .  A
C585        C586   1.418       .  A
C585        C589   1.445       .  S
C586        C587   1.406       .  A
C587        H600   1.085       .  S
C587        C588   1.401       .  A
C588        C590   1.444       .  S
C589        N593   1.158       .  T
C590        N594   1.157       .  T
C591        N596   1.157       .  T
C592        N595   1.158       .  T
C601        C602   1.409       .  A
C601        C606   1.401       .  A
C601        C615   1.444       .  S
C602        C607   1.486       .  S
C602        C603   1.401       .  A
C603        H622   1.085       .  S
C603        C604   1.400       .  A
C604        C605   1.420       .  A
C604        C616   1.444       .  S
C605        C606   1.410       .  A
C606        H621   1.084       .  S
C607        C608   1.404       .  A
C607        C612   1.411       .  A
C608        H623   1.085       .  S
C608        C609   1.401       .  A
C609        C610   1.413       .  A
C609        C613   1.444       .  S
C610        C611   1.404       .  A
C611        H624   1.085       .  S
C611        C612   1.400       .  A
C612        C614   1.444       .  S
C613        N617   1.157       .  T
C614        N618   1.157       .  T
C615        N620   1.157       .  T
C616        N619   1.157       .  T
C625        C626   1.409       .  A
C625        C630   1.406       .  A
C625        C639   1.443       .  S
C626        C631   1.488   1_565  S
C626        C627   1.400       .  A
C627        H646   1.085   1_565  S
C627        C628   1.400       .  A
C628        C629   1.420       .  A
C628        C640   1.445       .  S
C629        C630   1.409       .  A
C630        H645   1.084       .  S
C631        C632   1.402       .  A
C631        C636   1.408       .  A
C632        H647   1.085   1_545  S
C632        C633   1.403       .  A
C633        C634   1.418       .  A
C633        C637   1.443       .  S
C634        C635   1.408       .  A
C635        H648   1.083       .  S
C635        C636   1.401       .  A
C636        C638   1.444       .  S
C637        N641   1.157       .  T
C638        N642   1.157       .  T
C639        N644   1.157       .  T
C640        N643   1.157       .  T
C649        C650   1.410       .  A
C649        C654   1.399       .  A
C649        C663   1.445       .  S
C650        C655   1.486   1_545  S
C650        C651   1.405       .  A
C651        H670   1.085   1_545  S
C651        C652   1.403       .  A
C652        C653   1.412       .  A
C652        C664   1.443       .  S
C653        C654   1.406       .  A
C654        H669   1.085       .  S
C655        C656   1.400       .  A
C655        C660   1.413       .  A
C656        H671   1.085       .  S
C656        C657   1.397       .  A
C657        C658   1.416       .  A
C657        C661   1.446       .  S
C658        C659   1.404       .  A
C659        H672   1.084       .  S
C659        C660   1.405       .  A
C660        C662   1.443   1_565  S
C661        N665   1.157       .  T
C662        N666   1.157       .  T
C663        N668   1.157       .  T
C664        N667   1.157       .  T
C673        C674   1.411       .  A
C673        C678   1.401       .  A
C673        C687   1.444       .  S
C674        C679   1.489       .  S
C674        C675   1.403       .  A
C675        H694   1.085       .  S
C675        C676   1.402       .  A
C676        C677   1.416       .  A
C676        C688   1.444       .  S
C677        C678   1.406       .  A
C678        H693   1.085       .  S
C679        C680   1.402       .  A
C679        C684   1.412       .  A
C680        H695   1.085       .  S
C680        C681   1.401       .  A
C681        C682   1.417       .  A
C681        C685   1.443       .  S
C682        C683   1.406       .  A
C683        H696   1.085       .  S
C683        C684   1.401       .  A
C684        C686   1.444       .  S
C685        N689   1.157       .  T
C686        N690   1.157       .  T
C687        N692   1.157       .  T
C688        N691   1.157       .  T
C697        C698   1.412       .  A
C697        C702   1.402       .  A
C697        C711   1.444       .  S
C698        C703   1.487       .  S
C698        C699   1.402       .  A
C699        H718   1.085       .  S
C699        C700   1.399       .  A
C700        C701   1.416       .  A
C700        C712   1.445       .  S
C701        C702   1.405       .  A
C702        H717   1.085       .  S
C703        C704   1.403       .  A
C703        C708   1.411       .  A
C704        H719   1.085       .  S
C704        C705   1.399       .  A
C705        C706   1.414       .  A
C705        C709   1.444       .  S
C706        C707   1.406       .  A
C707        H720   1.085       .  S
C707        C708   1.402       .  A
C708        C710   1.444       .  S
C709        N713   1.157       .  T
C710        N714   1.157       .  T
C711        N716   1.157       .  T
C712        N715   1.158       .  T
C721        C722   1.412       .  A
C721        C726   1.403       .  A
C721        C735   1.444   1_565  S
C722        C727   1.490   1_565  S
C722        C723   1.401       .  A
C723        H742   1.085       .  S
C723        C724   1.400       .  A
C724        C725   1.420       .  A
C724        C736   1.444       .  S
C725        C726   1.407       .  A
C726        H741   1.084       .  S
C727        C728   1.407       .  A
C727        C732   1.413       .  A
C728        H743   1.084       .  S
C728        C729   1.404       .  A
C729        C730   1.410       .  A
C729        C733   1.443       .  S
C730        C731   1.404       .  A
C731        H744   1.085       .  S
C731        C732   1.398       .  A
C732        C734   1.445       .  S
C733        N737   1.157       .  T
C734        N738   1.157       .  T
C735        N740   1.157       .  T
C736        N739   1.157       .  T
C745        C746   1.409       .  A
C745        C750   1.405       .  A
C745        C759   1.443   1_556  S
C746        C751   1.490   1_566  S
C746        C747   1.403       .  A
C747        H766   1.085   1_565  S
C747        C748   1.403       .  A
C748        C749   1.416       .  A
C748        C760   1.443       .  S
C749        C750   1.409       .  A
C750        H765   1.085       .  S
C751        C752   1.402       .  A
C751        C756   1.408       .  A
C752        H767   1.085   1_545  S
C752        C753   1.404       .  A
C753        C754   1.421       .  A
C753        C757   1.445       .  S
C754        C755   1.410       .  A
C755        H768   1.084       .  S
C755        C756   1.403       .  A
C756        C758   1.443   1_554  S
C757        N761   1.158       .  T
C758        N762   1.157       .  T
C759        N764   1.157       .  T
C760        N763   1.157       .  T
C769        C770   1.411       .  A
C769        C774   1.403       .  A
C769        C783   1.443       .  S
C770        C775   1.489       .  S
C770        C771   1.401       .  A
C771        H790   1.085       .  S
C771        C772   1.401       .  A
C772        C773   1.417       .  A
C772        C784   1.443       .  S
C773        C774   1.406       .  A
C774        H789   1.084       .  S
C775        C776   1.403       .  A
C775        C780   1.408       .  A
C776        H791   1.085       .  S
C776        C777   1.404       .  A
C777        C778   1.418       .  A
C777        C781   1.443       .  S
C778        C779   1.412       .  A
C779        H792   1.084       .  S
C779        C780   1.400       .  A
C780        C782   1.445       .  S
C781        N785   1.157       .  T
C782        N786   1.157       .  T
C783        N788   1.157       .  T
C784        N787   1.157       .  T
C793        C794   1.406       .  A
C793        C798   1.398       .  A
C793        C807   1.444       .  S
C794        C799   1.484       .  S
C794        C795   1.403       .  A
C795        H814   1.085       .  S
C795        C796   1.406       .  A
C796        C797   1.418       .  A
C796        C808   1.444       .  S
C797        C798   1.408       .  A
C798        H813   1.084       .  S
C799        C800   1.399       .  A
C799        C804   1.409       .  A
C800        H815   1.085       .  S
C800        C801   1.402       .  A
C801        C802   1.420       .  A
C801        C805   1.445       .  S
C802        C803   1.406       .  A
C803        H816   1.084       .  S
C803        C804   1.403       .  A
C804        C806   1.444       .  S
C805        N809   1.157       .  T
C806        N810   1.157       .  T
C807        N812   1.157       .  T
C808        N811   1.157       .  T
C817        C818   1.415       .  A
C817        C822   1.402       .  A
C817        C831   1.444       .  S
C818        C823   1.495       .  S
C818        C819   1.404       .  A
C819        H838   1.085       .  S
C819        C820   1.401       .  A
C820        C821   1.417       .  A
C820        C832   1.445       .  S
C821        C822   1.405       .  A
C822        H837   1.085       .  S
C823        C824   1.403       .  A
C823        C828   1.413       .  A
C824        H839   1.085       .  S
C824        C825   1.401       .  A
C825        C826   1.420       .  A
C825        C829   1.445       .  S
C826        C827   1.408       .  A
C827        H840   1.084       .  S
C827        C828   1.403       .  A
C828        C830   1.444       .  S
C829        N833   1.157       .  T
C830        N834   1.157       .  T
C831        N836   1.157       .  T
C832        N835   1.157       .  T
C841        C842   1.414       .  A
C841        C846   1.403       .  A
C841        C855   1.444       .  S
C842        C847   1.493       .  S
C842        C843   1.404       .  A
C843        H862   1.085       .  S
C843        C844   1.402       .  A
C844        C845   1.416       .  A
C844        C856   1.445       .  S
C845        C846   1.406       .  A
C846        H861   1.085       .  S
C847        C848   1.405       .  A
C847        C852   1.412       .  A
C848        H863   1.085       .  S
C848        C849   1.404   1_554  A
C849        C850   1.415       .  A
C849        C853   1.443       .  S
C850        C851   1.407       .  A
C851        H864   1.084       .  S
C851        C852   1.402   1_556  A
C852        C854   1.444       .  S
C853        N857   1.157       .  T
C854        N858   1.157       .  T
C855        N860   1.157       .  T
C856        N859   1.157       .  T
C865        C866   1.404       .  A
C865        C870   1.397       .  A
C865        C879   1.445       .  S
C866        C871   1.478       .  S
C866        C867   1.400       .  A
C867        H886   1.085       .  S
C867        C868   1.401       .  A
C868        C869   1.417       .  A
C868        C880   1.441       .  S
C869        C870   1.413       .  A
C870        H885   1.084       .  S
C871        C872   1.399       .  A
C871        C876   1.408       .  A
C872        H887   1.085       .  S
C872        C873   1.399       .  A
C873        C874   1.419       .  A
C873        C877   1.445       .  S
C874        C875   1.406       .  A
C875        H888   1.084       .  S
C875        C876   1.400       .  A
C876        C878   1.444       .  S
C877        N881   1.157       .  T
C878        N882   1.157       .  T
C879        N884   1.157       .  T
C880        N883   1.156       .  T
C889        C890   1.411       .  A
C889        C894   1.404       .  A
C889        C903   1.444   1_655  S
C890        C895   1.490   1_655  S
C890        C891   1.403       .  A
C891        H910   1.085       .  S
C891        C892   1.404       .  A
C892        C893   1.416       .  A
C892        C904   1.444       .  S
C893        C894   1.407       .  A
C894        H909   1.085       .  S
C895        C896   1.401       .  A
C895        C900   1.410       .  A
C896        H911   1.085       .  S
C896        C897   1.404       .  A
C897        C898   1.420       .  A
C897        C901   1.444       .  S
C898        C899   1.408       .  A
C899        H912   1.084       .  S
C899        C900   1.403       .  A
C900        C902   1.444   1_455  S
C901        N905   1.157       .  T
C902        N906   1.157       .  T
C903        N908   1.157       .  T
C904        N907   1.157       .  T
C913        C914   1.410       .  A
C913        C918   1.401       .  A
C913        C927   1.444   1_455  S
C914        C919   1.488   1_455  S
C914        C915   1.403       .  A
C915        H934   1.085       .  S
C915        C916   1.404       .  A
C916        C917   1.415       .  A
C916        C928   1.444       .  S
C917        C918   1.406       .  A
C918        H933   1.085       .  S
C919        C920   1.402       .  A
C919        C924   1.409       .  A
C920        H935   1.085       .  S
C920        C921   1.405       .  A
C921        C922   1.421       .  A
C921        C925   1.444       .  S
C922        C923   1.409       .  A
C923        H936   1.084       .  S
C923        C924   1.401       .  A
C924        C926   1.444   1_655  S
C925        N929   1.157       .  T
C926        N930   1.157       .  T
C927        N932   1.157       .  T
C928        N931   1.157       .  T
C937        C938   1.408       .  A
C937        C942   1.401       .  A
C937        C951   1.444       .  S
C938        C943   1.488       .  S
C938        C939   1.403       .  A
C939        H958   1.085       .  S
C939        C940   1.404       .  A
C940        C941   1.417       .  A
C940        C952   1.443       .  S
C941        C942   1.411       .  A
C942        H957   1.085       .  S
C943        C944   1.399       .  A
C943        C948   1.412       .  A
C944        H959   1.085       .  S
C944        C945   1.400       .  A
C945        C946   1.420       .  A
C945        C949   1.445       .  S
C946        C947   1.407       .  A
C947        H960   1.084       .  S
C947        C948   1.405       .  A
C948        C950   1.444   1_556  S
C949        N953   1.157       .  T
C950        N954   1.157       .  T
C951        N956   1.157   1_556  T
C952        N955   1.157       .  T
C961        C962   1.413       .  A
C961        C966   1.403       .  A
C961        C975   1.444   1_655  S
C962        C967   1.495   1_655  S
C962        C963   1.403       .  A
C963        H982   1.085       .  S
C963        C964   1.401       .  A
C964        C965   1.418       .  A
C964        C976   1.445       .  S
C965        C966   1.407       .  A
C966        H981   1.085       .  S
C967        C968   1.403       .  A
C967        C972   1.413       .  A
C968        H983   1.085       .  S
C968        C969   1.405       .  A
C969        C970   1.421       .  A
C969        C973   1.444       .  S
C970        C971   1.407       .  A
C971        H984   1.084       .  S
C971        C972   1.401       .  A
C972        C974   1.445   1_455  S
C973        N977   1.157       .  T
C974        N978   1.157       .  T
C975        N980   1.157       .  T
C976        N979   1.157       .  T
C985        C986   1.411       .  A
C985        C990   1.402       .  A
C985        C999   1.444       .  S
C986        C991   1.489       .  S
C986        C987   1.403       .  A
C987       H1006   1.085       .  S
C987        C988   1.402       .  A
C988        C989   1.416       .  A
C988       C1000   1.443       .  S
C989        C990   1.406       .  A
C990       H1005   1.085       .  S
C991        C992   1.401       .  A
C991        C996   1.410       .  A
C992       H1007   1.085       .  S
C992        C993   1.400       .  A
C993        C994   1.420       .  A
C993        C997   1.445       .  S
C994        C995   1.409       .  A
C995       H1008   1.084       .  S
C995        C996   1.402       .  A
C996        C998   1.444       .  S
C997       N1001   1.158       .  T
C998       N1002   1.157       .  T
C999       N1004   1.157       .  T
C1000      N1003   1.157       .  T
C1009      C1010   1.410       .  A
C1009      C1014   1.403       .  A
C1009      C1023   1.444       .  S
C1010      C1015   1.491       .  S
C1010      C1011   1.402       .  A
C1011      H1030   1.085       .  S
C1011      C1012   1.402       .  A
C1012      C1013   1.422       .  A
C1012      C1024   1.445       .  S
C1013      C1014   1.409       .  A
C1014      H1029   1.084       .  S
C1015      C1016   1.403       .  A
C1015      C1020   1.412       .  A
C1016      H1031   1.085       .  S
C1016      C1017   1.401       .  A
C1017      C1018   1.413       .  A
C1017      C1021   1.442       .  S
C1018      C1019   1.406       .  A
C1019      H1032   1.085       .  S
C1019      C1020   1.404       .  A
C1020      C1022   1.444       .  S
C1021      N1025   1.156       .  T
C1022      N1026   1.157       .  T
C1023      N1028   1.157       .  T
C1024      N1027   1.157       .  T
C1033      C1034   1.411       .  A
C1033      C1038   1.400       .  A
C1033      C1047   1.445   1_455  S
C1034      C1039   1.487   1_455  S
C1034      C1035   1.403       .  A
C1035      H1054   1.085       .  S
C1035      C1036   1.402       .  A
C1036      C1037   1.415       .  A
C1036      C1048   1.444       .  S
C1037      C1038   1.405       .  A
C1038      H1053   1.085   1_556  S
C1039      C1040   1.400       .  A
C1039      C1044   1.410       .  A
C1040      H1055   1.085       .  S
C1040      C1041   1.400       .  A
C1041      C1042   1.422       .  A
C1041      C1045   1.444       .  S
C1042      C1043   1.409       .  A
C1043      H1056   1.084       .  S
C1043      C1044   1.401       .  A
C1044      C1046   1.444   1_655  S
C1045      N1049   1.157       .  T
C1046      N1050   1.157       .  T
C1047      N1052   1.157       .  T
C1048      N1051   1.157       .  T
C1057      C1058   1.410       .  A
C1057      C1062   1.405       .  A
C1057      C1071   1.443       .  S
C1058      C1063   1.486       .  S
C1058      C1059   1.399       .  A
C1059      H1078   1.085       .  S
C1059      C1060   1.401       .  A
C1060      C1061   1.420       .  A
C1060      C1072   1.445       .  S
C1061      C1062   1.407       .  A
C1062      H1077   1.084       .  S
C1063      C1064   1.404       .  A
C1063      C1068   1.407       .  A
C1064      H1079   1.085       .  S
C1064      C1065   1.406       .  A
C1065      C1066   1.414       .  A
C1065      C1069   1.443       .  S
C1066      C1067   1.409       .  A
C1067      H1080   1.085       .  S
C1067      C1068   1.400       .  A
C1068      C1070   1.444       .  S
C1069      N1073   1.157       .  T
C1070      N1074   1.157       .  T
C1071      N1076   1.157       .  T
C1072      N1075   1.157       .  T
C1081      C1082   1.406       .  A
C1081      C1086   1.396       .  A
C1081      C1095   1.444       .  S
C1082      C1087   1.483       .  S
C1082      C1083   1.405       .  A
C1083      H1102   1.085       .  S
C1083      C1084   1.405       .  A
C1084      C1085   1.413       .  A
C1084      C1096   1.443       .  S
C1085      C1086   1.408       .  A
C1086      H1101   1.085       .  S
C1087      C1088   1.401       .  A
C1087      C1092   1.411       .  A
C1088      H1103   1.085       .  S
C1088      C1089   1.400       .  A
C1089      C1090   1.412       .  A
C1089      C1093   1.444       .  S
C1090      C1091   1.403       .  A
C1091      H1104   1.085       .  S
C1091      C1092   1.402       .  A
C1092      C1094   1.443       .  S
C1093      N1097   1.157       .  T
C1094      N1098   1.157       .  T
C1095      N1100   1.157       .  T
C1096      N1099   1.157       .  T
C1105      C1106   1.410       .  A
C1105      C1110   1.401       .  A
C1105      C1119   1.443       .  S
C1106      C1111   1.478       .  S
C1106      C1107   1.400       .  A
C1107      H1126   1.085       .  S
C1107      C1108   1.398       .  A
C1108      C1109   1.413       .  A
C1108      C1120   1.445       .  S
C1109      C1110   1.402       .  A
C1110      H1125   1.085       .  S
C1111      C1112   1.403       .  A
C1111      C1116   1.404       .  A
C1112      H1127   1.085       .  S
C1112      C1113   1.404       .  A
C1113      C1114   1.415       .  A
C1113      C1117   1.443       .  S
C1114      C1115   1.411       .  A
C1115      H1128   1.084       .  S
C1115      C1116   1.395       .  A
C1116      C1118   1.445       .  S
C1117      N1121   1.157       .  T
C1118      N1122   1.157       .  T
C1119      N1124   1.157       .  T
C1120      N1123   1.157       .  T
C1129      C1130   1.411       .  A
C1129      C1134   1.405       .  A
C1129      C1143   1.444       .  S
C1130      C1135   1.485       .  S
C1130      C1131   1.396       .  A
C1131      H1150   1.085       .  S
C1131      C1132   1.399       .  A
C1132      C1133   1.424       .  A
C1132      C1144   1.444       .  S
C1133      C1134   1.409       .  A
C1134      H1149   1.084       .  S
C1135      C1136   1.404       .  A
C1135      C1140   1.408       .  A
C1136      H1151   1.085       .  S
C1136      C1137   1.404       .  A
C1137      C1138   1.414       .  A
C1137      C1141   1.444       .  S
C1138      C1139   1.408       .  A
C1139      H1152   1.085       .  S
C1139      C1140   1.398       .  A
C1140      C1142   1.444       .  S
C1141      N1145   1.157       .  T
C1142      N1146   1.157       .  T
C1143      N1148   1.157       .  T
C1144      N1147   1.157       .  T
C1153      C1154   1.412       .  A
C1153      C1158   1.402   1_556  A
C1153      C1167   1.444       .  S
C1154      C1159   1.492       .  S
C1154      C1155   1.403       .  A
C1155      H1174   1.085       .  S
C1155      C1156   1.400   1_556  A
C1156      C1157   1.418       .  A
C1156      C1168   1.444       .  S
C1157      C1158   1.408       .  A
C1158      H1173   1.085       .  S
C1159      C1160   1.403       .  A
C1159      C1164   1.413       .  A
C1160      H1175   1.085       .  S
C1160      C1161   1.402       .  A
C1161      C1162   1.419       .  A
C1161      C1165   1.445       .  S
C1162      C1163   1.406       .  A
C1163      H1176   1.085       .  S
C1163      C1164   1.400       .  A
C1164      C1166   1.445       .  S
C1165      N1169   1.158       .  T
C1166      N1170   1.157       .  T
C1167      N1172   1.157       .  T
C1168      N1171   1.157       .  T
C1177      C1178   1.412       .  A
C1177      C1182   1.404       .  A
C1177      C1191   1.444       .  S
C1178      C1183   1.493       .  S
C1178      C1179   1.402       .  A
C1179      H1198   1.085       .  S
C1179      C1180   1.402       .  A
C1180      C1181   1.419       .  A
C1180      C1192   1.445       .  S
C1181      C1182   1.408       .  A
C1182      H1197   1.085       .  S
C1183      C1184   1.403       .  A
C1183      C1188   1.412       .  A
C1184      H1199   1.085       .  S
C1184      C1185   1.403       .  A
C1185      C1186   1.417       .  A
C1185      C1189   1.444       .  S
C1186      C1187   1.407       .  A
C1187      H1200   1.084       .  S
C1187      C1188   1.404       .  A
C1188      C1190   1.444       .  S
C1189      N1193   1.157       .  T
C1190      N1194   1.157       .  T
C1191      N1196   1.157       .  T
C1192      N1195   1.157       .  T
C1201      C1202   1.415       .  A
C1201      C1206   1.403       .  A
C1201      C1215   1.443       .  S
C1202      C1207   1.494       .  S
C1202      C1203   1.405       .  A
C1203      H1222   1.085       .  S
C1203      C1204   1.399       .  A
C1204      C1205   1.412       .  A
C1204      C1216   1.445       .  S
C1205      C1206   1.402       .  A
C1206      H1221   1.085       .  S
C1207      C1208   1.406       .  A
C1207      C1212   1.410       .  A
C1208      H1223   1.085       .  S
C1208      C1209   1.405       .  A
C1209      C1210   1.417       .  A
C1209      C1213   1.443       .  S
C1210      C1211   1.408       .  A
C1211      H1224   1.083   1_554  S
C1211      C1212   1.399       .  A
C1212      C1214   1.445       .  S
C1213      N1217   1.157       .  T
C1214      N1218   1.157   1_554  T
C1215      N1220   1.157       .  T
C1216      N1219   1.157       .  T
C1225      C1226   1.403       .  A
C1225      C1230   1.393       .  A
C1225      C1239   1.446       .  S
C1226      C1231   1.481       .  S
C1226      C1227   1.405       .  A
C1227      H1246   1.085       .  S
C1227      C1228   1.407       .  A
C1228      C1229   1.416       .  A
C1228      C1240   1.443       .  S
C1229      C1230   1.412       .  A
C1230      H1245   1.081       .  S
C1231      C1232   1.399       .  A
C1231      C1236   1.412       .  A
C1232      H1247   1.085       .  S
C1232      C1233   1.398       .  A
C1233      C1234   1.415       .  A
C1233      C1237   1.444       .  S
C1234      C1235   1.403       .  A
C1235      H1248   1.085       .  S
C1235      C1236   1.401       .  A
C1236      C1238   1.444       .  S
C1237      N1241   1.157       .  T
C1238      N1242   1.157       .  T
C1239      N1244   1.157       .  T
C1240      N1243   1.157       .  T
C1249      C1250   1.408       .  A
C1249      C1254   1.399       .  A
C1249      C1263   1.445       .  S
C1250      C1255   1.483       .  S
C1250      C1251   1.400       .  A
C1251      H1270   1.085       .  S
C1251      C1252   1.401       .  A
C1252      C1253   1.420       .  A
C1252      C1264   1.444       .  S
C1253      C1254   1.409       .  A
C1254      H1269   1.082       .  S
C1255      C1256   1.402       .  A
C1255      C1260   1.408       .  A
C1256      H1271   1.085       .  S
C1256      C1257   1.403       .  A
C1257      C1258   1.418       .  A
C1257      C1261   1.444       .  S
C1258      C1259   1.408       .  A
C1259      H1272   1.083       .  S
C1259      C1260   1.396       .  A
C1260      C1262   1.445       .  S
C1261      N1265   1.157       .  T
C1262      N1266   1.157       .  T
C1263      N1268   1.157       .  T
C1264      N1267   1.157       .  T
C1273      C1274   1.412       .  A
C1273      C1278   1.399       .  A
C1273      C1287   1.445       .  S
C1274      C1279   1.497       .  S
C1274      C1275   1.407       .  A
C1275      H1294   1.084       .  S
C1275      C1276   1.405       .  A
C1276      C1277   1.417       .  A
C1276      C1288   1.443   1_554  S
C1277      C1278   1.409       .  A
C1278      H1293   1.085       .  S
C1279      C1280   1.407       .  A
C1279      C1284   1.414       .  A
C1280      H1295   1.084       .  S
C1280      C1281   1.400       .  A
C1281      C1282   1.412       .  A
C1281      C1285   1.445       .  S
C1282      C1283   1.405       .  A
C1283      H1296   1.085       .  S
C1283      C1284   1.403       .  A
C1284      C1286   1.444       .  S
C1285      N1289   1.157       .  T
C1286      N1290   1.157       .  T
C1287      N1292   1.157       .  T
C1288      N1291   1.157       .  T
C1297      C1298   1.405       .  A
C1297      C1302   1.395       .  A
C1297      C1311   1.445       .  S
C1298      C1303   1.477       .  S
C1298      C1299   1.402       .  A
C1299      H1318   1.085       .  S
C1299      C1300   1.403       .  A
C1300      C1301   1.417       .  A
C1300      C1312   1.444       .  S
C1301      C1302   1.410       .  A
C1302      H1317   1.085       .  S
C1303      C1304   1.402       .  A
C1303      C1308   1.410       .  A
C1304      H1319   1.085       .  S
C1304      C1305   1.397       .  A
C1305      C1306   1.409       .  A
C1305      C1309   1.445       .  S
C1306      C1307   1.402       .  A
C1307      H1320   1.085       .  S
C1307      C1308   1.400       .  A
C1308      C1310   1.444       .  S
C1309      N1313   1.157       .  T
C1310      N1314   1.157       .  T
C1311      N1316   1.157       .  T
C1312      N1315   1.157       .  T
C1321      C1322   1.406       .  A
C1321      C1326   1.400       .  A
C1321      C1335   1.444       .  S
C1322      C1327   1.486       .  S
C1322      C1323   1.404       .  A
C1323      H1342   1.085       .  S
C1323      C1324   1.406       .  A
C1324      C1325   1.415       .  A
C1324      C1336   1.444       .  S
C1325      C1326   1.409       .  A
C1326      H1341   1.085       .  S
C1327      C1328   1.400       .  A
C1327      C1332   1.412       .  A
C1328      H1343   1.085       .  S
C1328      C1329   1.401       .  A
C1329      C1330   1.413       .  A
C1329      C1333   1.444       .  S
C1330      C1331   1.403       .  A
C1331      H1344   1.085       .  S
C1331      C1332   1.405       .  A
C1332      C1334   1.443       .  S
C1333      N1337   1.157       .  T
C1334      N1338   1.157       .  T
C1335      N1340   1.157       .  T
C1336      N1339   1.157       .  T
C1345      C1346   1.414       .  A
C1345      C1350   1.405       .  A
C1345      C1359   1.444       .  S
C1346      C1351   1.493       .  S
C1346      C1347   1.404       .  A
C1347      H1366   1.085       .  S
C1347      C1348   1.400       .  A
C1348      C1349   1.415       .  A
C1348      C1360   1.445       .  S
C1349      C1350   1.406       .  A
C1350      H1365   1.085       .  S
C1351      C1352   1.404       .  A
C1351      C1356   1.414       .  A
C1352      H1367   1.085       .  S
C1352      C1353   1.403       .  A
C1353      C1354   1.415       .  A
C1353      C1357   1.445       .  S
C1354      C1355   1.404       .  A
C1355      H1368   1.085       .  S
C1355      C1356   1.402       .  A
C1356      C1358   1.444       .  S
C1357      N1361   1.157       .  T
C1358      N1362   1.157       .  T
C1359      N1364   1.157       .  T
C1360      N1363   1.157       .  T
C1369      C1370   1.408       .  A
C1369      C1374   1.402       .  A
C1369      C1383   1.444       .  S
C1370      C1375   1.485       .  S
C1370      C1371   1.399       .  A
C1371      H1390   1.085       .  S
C1371      C1372   1.399       .  A
C1372      C1373   1.423       .  A
C1372      C1384   1.445       .  S
C1373      C1374   1.410       .  A
C1374      H1389   1.084       .  S
C1375      C1376   1.403       .  A
C1375      C1380   1.409       .  A
C1376      H1391   1.085       .  S
C1376      C1377   1.403       .  A
C1377      C1378   1.415       .  A
C1377      C1381   1.443       .  S
C1378      C1379   1.406       .  A
C1379      H1392   1.085       .  S
C1379      C1380   1.398       .  A
C1380      C1382   1.444       .  S
C1381      N1385   1.157       .  T
C1382      N1386   1.157       .  T
C1383      N1388   1.157       .  T
C1384      N1387   1.158       .  T
C1393      C1394   1.412       .  A
C1393      C1398   1.402       .  A
C1393      C1407   1.445       .  S
C1394      C1399   1.494       .  S
C1394      C1395   1.403       .  A
C1395      H1414   1.085       .  S
C1395      C1396   1.405       .  A
C1396      C1397   1.421       .  A
C1396      C1408   1.444       .  S
C1397      C1398   1.408       .  A
C1398      H1413   1.084       .  S
C1399      C1400   1.403       .  A
C1399      C1404   1.414       .  A
C1400      H1415   1.085       .  S
C1400      C1401   1.402       .  A
C1401      C1402   1.416       .  A
C1401      C1405   1.444       .  S
C1402      C1403   1.407       .  A
C1403      H1416   1.085       .  S
C1403      C1404   1.404       .  A
C1404      C1406   1.444       .  S
C1405      N1409   1.157       .  T
C1406      N1410   1.157       .  T
C1407      N1412   1.157       .  T
C1408      N1411   1.157       .  T
C1417      C1418   1.408       .  A
C1417      C1422   1.398       .  A
C1417      C1431   1.444       .  S
C1418      C1423   1.487       .  S
C1418      C1419   1.403       .  A
C1419      H1438   1.085       .  S
C1419      C1420   1.403       .  A
C1420      C1421   1.419       .  A
C1420      C1432   1.443       .  S
C1421      C1422   1.410       .  A
C1422      H1437   1.084       .  S
C1423      C1424   1.402       .  A
C1423      C1428   1.410       .  A
C1424      H1439   1.085       .  S
C1424      C1425   1.398       .  A
C1425      C1426   1.417       .  A
C1425      C1429   1.445       .  S
C1426      C1427   1.407       .  A
C1427      H1440   1.084       .  S
C1427      C1428   1.403       .  A
C1428      C1430   1.443       .  S
C1429      N1433   1.157       .  T
C1430      N1434   1.157       .  T
C1431      N1436   1.157       .  T
C1432      N1435   1.157       .  T
