geometry optimzed in LAMMPS
_audit_creation_date              2020-11-30 
_audit_creation_method            'lammps2cif' 
_symmetry_space_group_name_H-M    'P1' 
_symmetry_Int_Tables_number       1 
_symmetry_cell_setting            triclinic 
loop_ 
_symmetry_equiv_pos_as_xyz 
  x,y,z 
_cell_length_a                    34.70785116 
_cell_length_b                    34.71148983115853 
_cell_length_c                    60.4180607353878 
_cell_angle_alpha                 89.89054902803667 
_cell_angle_beta                  89.90048267315252 
_cell_angle_gamma                 90.00046811828445 
loop_ 
_atom_site_label 
_atom_site_type_symbol 
_atom_site_fract_x 
_atom_site_fract_y 
_atom_site_fract_z 
_atom_site_charge 
Fe1        Fe  0.00187087  0.37481462  0.88552034     1.65800
Fe2        Fe  0.45165853  0.37583156  0.93458220     1.73200
Fe3        Fe  0.05067142  0.37581018  0.93495212     1.54400
O4          O  0.07485561  0.33272228  0.91591072    -0.80100
O5          O  0.46870825  0.41896426  0.95590895    -0.78400
O6          O  0.04309055  0.33205637  0.88383975    -0.82600
O7          O  0.04320339  0.41738697  0.88314539    -0.77500
O8          O  0.03299564  0.33359463  0.95684340    -0.79200
O9          O  0.42803107  0.41807184  0.91467343    -0.82000
C10         C  0.06914051  0.43048079  0.89578982     0.98800
C11         C  0.06907263  0.31951187  0.89666438     1.06200
O12         O  0.50140004  0.37548556  0.91835556    -1.11000
O13         O  0.42805181  0.33270498  0.91539733    -0.73400
O14         O  0.46060414  0.33215788  0.88352296    -0.76900
O15         O  0.07485298  0.41810717  0.91525221    -0.77600
C16         C  0.43431880  0.31956127  0.89617599     0.97700
O17         O  0.46071408  0.41748828  0.88284373    -0.75500
O18         O  0.46870790  0.33367337  0.95663540    -0.80700
C19         C  0.50075887  0.43186216  0.96262563     1.00300
C20         C  0.50074888  0.32097804  0.96351859     1.06200
O21         O  0.03299760  0.41889922  0.95618613    -0.76400
C22         C  0.43436803  0.43052284  0.89527939     1.04500
Fe23       Fe  0.25195942  0.12484772  0.86711682     1.65800
Fe24       Fe  0.25153675  0.17565227  0.81825466     1.73200
Fe25       Fe  0.25155430  0.07665804  0.81748529     1.54400
O26         O  0.29447694  0.05228167  0.83657406    -0.80100
O27         O  0.20858871  0.15887950  0.79673652    -0.78400
O28         O  0.29468865  0.08359994  0.86879199    -0.82600
O29         O  0.20935133  0.08350954  0.86915393    -0.77500
O30         O  0.29396266  0.09460509  0.79578273    -0.79200
O31         O  0.20911499  0.19907943  0.83811366    -0.82000
C32         C  0.19644199  0.05769562  0.85636917     0.98800
C33         C  0.30742790  0.05781375  0.85590458     1.06200
O34         O  0.25168905  0.12571852  0.83428158    -1.11000
O35         O  0.29448928  0.19896603  0.83768298    -0.73400
O36         O  0.29460080  0.16608444  0.86945234    -0.76900
O37         O  0.20907686  0.05218972  0.83694408    -0.77600
C38         C  0.30737837  0.19249067  0.85694143     0.97700
O39         O  0.20925170  0.16597218  0.86979935    -0.75500
O40         O  0.29389278  0.15887521  0.79625331    -0.80700
C41         C  0.19572928  0.12691676  0.78986697     1.00300
C42         C  0.30663054  0.12692667  0.78926386     1.06200
O43         O  0.20864436  0.09459702  0.79620315    -0.76400
C44         C  0.19640695  0.19250262  0.85742576     1.04500
Fe45       Fe  0.25392775  0.38094049  0.61705611     1.65800
Fe46       Fe  0.20283130  0.38017730  0.56841082     1.73200
Fe47       Fe  0.30182423  0.38018012  0.56722361     1.54400
O48         O  0.32634968  0.42320764  0.58612099    -0.80100
O49         O  0.21944273  0.33708751  0.54693102    -0.78400
O50         O  0.29517111  0.42368083  0.61844938    -0.82600
O51         O  0.29528642  0.33837015  0.61901853    -0.77500
O52         O  0.28374171  0.42246708  0.54551606    -0.79200
O53         O  0.17953452  0.33791374  0.58846293    -0.82000
C54         C  0.32100296  0.32534183  0.60615659     0.98800
C55         C  0.32090234  0.43631177  0.60543584     1.06200
O56         O  0.25286570  0.38043568  0.58422631    -1.11000
O57         O  0.17966012  0.42326489  0.58781956    -0.73400
O58         O  0.21270059  0.42359442  0.61946349    -0.76900
O59         O  0.32639164  0.33781375  0.58667292    -0.77600
C60         C  0.18624006  0.43629262  0.60701729     0.97700
O61         O  0.21282670  0.33823718  0.62001459    -0.75500
O62         O  0.21946787  0.42236320  0.54624870    -0.80700
C63         C  0.25135413  0.32419737  0.53993914     1.00300
C64         C  0.25136818  0.43508021  0.53910954     1.06200
O65         O  0.28372516  0.33715392  0.54609913    -0.76400
C66         C  0.18622497  0.32531977  0.60777132     1.04500
Fe67       Fe  0.00366064  0.13088040  0.63535958     1.65800
Fe68       Fe  0.00200061  0.08028416  0.68428981     1.73200
Fe69       Fe  0.00201629  0.17927344  0.68491770     1.54400
O70         O  0.04524380  0.20367586  0.66598305    -0.80100
O71         O  0.45866362  0.09713966  0.70562221    -0.78400
O72         O  0.04646842  0.17207097  0.63387172    -0.82600
O73         O  0.46114473  0.17225330  0.63301443    -0.77500
O74         O  0.04409379  0.16144118  0.70676550    -0.79200
O75         O  0.45996443  0.05685653  0.66425188    -0.82000
C76         C  0.44780932  0.19802255  0.64571324     0.98800
C77         C  0.05877880  0.19799698  0.64677544     1.06200
O78         O  0.00254702  0.13014651  0.66819244    -1.11000
O79         O  0.04532346  0.05682082  0.66511666    -0.73400
O80         O  0.04634092  0.08963548  0.63333531    -0.76900
O81         O  0.45985776  0.20353586  0.66523748    -0.77600
C82         C  0.05875212  0.06324969  0.64595218     0.97700
O83         O  0.46100826  0.08975813  0.63249263    -0.75500
O84         O  0.04395602  0.09715714  0.70642169    -0.80700
C85         C  0.44575465  0.12912508  0.71244894     1.00300
C86         C  0.05664968  0.12913902  0.71336239     1.06200
O87         O  0.45877879  0.16141042  0.70610282    -0.76400
C88         C  0.44779004  0.06333372  0.64483902     1.04500
Fe89       Fe  0.24663819  0.13240701  0.38538849     1.65800
Fe90       Fe  0.29724798  0.13064310  0.43420178     1.73200
Fe91       Fe  0.19825462  0.13064608  0.43505637     1.54400
O92         O  0.17386966  0.17395345  0.41622242    -0.80100
O93         O  0.28041629  0.08724753  0.45551624    -0.78400
O94         O  0.20542991  0.17518973  0.38402705    -0.82600
O95         O  0.20528643  0.08988848  0.38310520    -0.77500
O96         O  0.21611181  0.17263045  0.45692332    -0.79200
O97         O  0.32067656  0.08868619  0.41408454    -0.82000
C98         C  0.17949122  0.07654935  0.39584031     0.98800
C99         C  0.17953426  0.18750372  0.39700320     1.06200
O100        O  0.24737632  0.13122121  0.41821882    -1.11000
O101        O  0.32066698  0.17402125  0.41502531    -0.73400
O102        O  0.28786160  0.17510996  0.38330884    -0.76900
O103        O  0.17395297  0.08857398  0.41537832    -0.77600
C104        C  0.31422808  0.18750279  0.39588963     0.97700
O105        O  0.28777447  0.08977627  0.38239631    -0.75500
O106        O  0.28039822  0.17250831  0.45640928    -0.80700
C107        C  0.24844067  0.07428955  0.46239328     1.00300
C108        C  0.24842737  0.18516485  0.46345055     1.06200
O109        O  0.21613626  0.08731874  0.45614229    -0.76400
C110        C  0.31419950  0.07654249  0.39468316     1.04500
Fe111      Fe  0.49683627  0.38268280  0.36718219     1.65800
Fe112      Fe  0.49794939  0.33144767  0.31859299     1.73200
Fe113      Fe  0.49793983  0.43041907  0.31729507     1.54400
O114        O  0.45481531  0.45500617  0.33617295    -0.80100
O115        O  0.04112605  0.34799218  0.29706965    -0.78400
O116        O  0.45408696  0.42392334  0.36853094    -0.82600
O117        O  0.03939982  0.42403666  0.36909907    -0.77500
O118        O  0.45573963  0.41226643  0.29563416    -0.79200
O119        O  0.04012159  0.30824562  0.33865552    -0.82000
C120        C  0.05253292  0.44970430  0.35621090     0.98800
C121        C  0.44155604  0.44961075  0.35548402     1.06200
O122        O  0.49757975  0.38152188  0.33435330    -1.11000
O123        O  0.45477506  0.30832730  0.33803298    -0.73400
O124        O  0.45414415  0.34149487  0.36962602    -0.76900
O125        O  0.04021483  0.45502721  0.33671239    -0.77600
C126        C  0.44156286  0.31499216  0.35720310     0.97700
O127        O  0.03950507  0.34158037  0.37018908    -0.75500
O128        O  0.45585501  0.34800005  0.29644511    -0.80700
C129        C  0.05403822  0.37987370  0.29002527     1.00300
C130        C  0.44314792  0.37986921  0.28928421     1.06200
O131        O  0.04106668  0.41226203  0.29616242    -0.76400
C132        C  0.05254276  0.31497221  0.35796992     1.04500
Fe133      Fe  0.49748340  0.12381761  0.11726195     1.65800
Fe134      Fe  0.04807043  0.12541414  0.06833193     1.73200
Fe135      Fe  0.44907438  0.12538703  0.06770057     1.54400
O136        O  0.42472916  0.08213685  0.08662487    -0.80100
O137        O  0.03120308  0.16877637  0.04701926    -0.78400
O138        O  0.45628691  0.08102342  0.11875935    -0.82600
O139        O  0.45611972  0.16633776  0.11958570    -0.77500
O140        O  0.46691019  0.08335086  0.04583377    -0.79200
O141        O  0.07153879  0.16742810  0.08837433    -0.82000
C142        C  0.43031461  0.17961678  0.10688800     0.98800
C143        C  0.43040129  0.06865373  0.10584523     1.06200
O144        O  0.49820908  0.12488177  0.08442829    -1.11000
O145        O  0.07150200  0.08207448  0.08750623    -0.73400
O146        O  0.03872995  0.08114054  0.11930344    -0.76900
O147        O  0.42477021  0.16750859  0.08738062    -0.77600
C148        C  0.06508842  0.06868759  0.10668283     0.97700
O149        O  0.03861086  0.16646655  0.12012069    -0.75500
O150        O  0.03119505  0.08348299  0.04617783    -0.80700
C151        C  0.99920416  0.18169764  0.04021115     1.00300
C152        C  0.49920868  0.07080807  0.03922451     1.06200
O153        O  0.46692051  0.16865057  0.04654365    -0.76400
C154        C  0.06505962  0.17964191  0.10777714     1.04500
Fe155      Fe  0.24745062  0.37354448  0.13552542     1.65800
Fe156      Fe  0.24830517  0.42465222  0.18415917     1.73200
Fe157      Fe  0.24829121  0.32567316  0.18536852     1.54400
O158        O  0.20528850  0.30109677  0.16646014    -0.80100
O159        O  0.29137074  0.40805251  0.20566328    -0.78400
O160        O  0.20469344  0.33231891  0.13414689    -0.82600
O161        O  0.29001083  0.33217661  0.13355933    -0.77500
O162        O  0.20595911  0.34376195  0.20703997    -0.79200
O163        O  0.29058562  0.44789037  0.16411225    -0.82000
C164        C  0.30310244  0.30650454  0.14643288     0.98800
C165        C  0.19212311  0.30655531  0.14715747     1.06200
O166        O  0.24801650  0.37461791  0.16835482    -1.11000
O167        O  0.20523479  0.44785077  0.16474547    -0.73400
O168        O  0.20479584  0.41476851  0.13312355    -0.76900
O169        O  0.29069504  0.30114835  0.16593340    -0.77600
C170        C  0.19214840  0.44125158  0.14556386     0.97700
O171        O  0.29015900  0.41462979  0.13255217    -0.75500
O172        O  0.20610045  0.40803437  0.20629694    -0.80700
C173        C  0.30423600  0.37615512  0.21268781     1.00300
C174        C  0.19334710  0.37614486  0.21342440     1.06200
O175        O  0.29128908  0.34378356  0.20652672    -0.76400
C176        C  0.30313100  0.44119836  0.14479685     1.04500
C177        C  0.16195707  0.28175236  0.13941457    -0.16900
C178        C  0.13789990  0.25993742  0.13238197     0.07100
C179        C  0.11114256  0.23325754  0.12378451     0.09000
C180        C  0.08945561  0.20942150  0.11638503    -0.17800
C181        C  0.40558150  0.20939767  0.11520778    -0.16900
C182        C  0.38374604  0.23323405  0.12249749     0.07100
C183        C  0.35697407  0.25990912  0.13112554     0.09000
C184        C  0.33302407  0.28171728  0.13832358    -0.17800
C185        C  0.40570324  0.03832889  0.11358309    -0.16900
C186        C  0.38386522  0.01411991  0.12050016     0.07100
C187        C  0.35706271  0.48722171  0.12891371     0.09000
C188        C  0.33307865  0.46549388  0.13619645    -0.17800
C189        C  0.16198097  0.46558031  0.13732075    -0.16900
C190        C  0.13791512  0.48730711  0.13017871     0.07100
C191        C  0.11115505  0.01418760  0.12176082     0.09000
C192        C  0.08947187  0.03837966  0.11471156    -0.17800
C193        C  0.16332615  0.37678052  0.22976088    -0.16900
C194        C  0.13854249  0.37752054  0.24374732     0.07100
C195        C  0.10961758  0.37847393  0.26017612     0.09000
C196        C  0.08459615  0.37922088  0.27402181    -0.17800
C197        C  0.41320883  0.37919556  0.27295030    -0.16900
C198        C  0.38849487  0.37844653  0.25896788     0.07100
C199        C  0.35965155  0.37750040  0.24254139     0.09000
C200        C  0.33470521  0.37677085  0.22869553    -0.17800
C201        C  0.15482094  0.21783746  0.38932994    -0.16900
C202        C  0.13302369  0.24204596  0.38240650     0.07100
C203        C  0.10630691  0.26894033  0.37394174     0.09000
C204        C  0.08240678  0.29066640  0.36660776    -0.17800
C205        C  0.33859467  0.21785808  0.38787101    -0.16900
C206        C  0.36031486  0.24209279  0.38087420     0.07100
C207        C  0.38715819  0.26900103  0.37253529     0.09000
C208        C  0.41130956  0.29072032  0.36544236    -0.17800
C209        C  0.33857353  0.04676527  0.38602366    -0.16900
C210        C  0.36030500  0.02291215  0.37865393     0.07100
C211        C  0.38715760  0.49621254  0.37014040     0.09000
C212        C  0.41130663  0.47439255  0.36318112    -0.17800
C213        C  0.15476696  0.04679794  0.38752315    -0.16900
C214        C  0.13297339  0.02298836  0.38020492     0.07100
C215        C  0.10627360  0.99633497  0.37153166     0.09000
C216        C  0.08238935  0.47452595  0.36430838    -0.17800
C217        C  0.25077335  0.46504262  0.52272565    -0.16900
C218        C  0.25016315  0.48976155  0.50869222     0.07100
C219        C  0.24942437  0.01863046  0.49221627     0.09000
C220        C  0.24887452  0.04364821  0.47835813    -0.17800
C221        C  0.25077226  0.29366779  0.52398030    -0.16900
C222        C  0.25016499  0.26865045  0.51018236     0.07100
C223        C  0.24942744  0.23974073  0.49380114     0.09000
C224        C  0.24887577  0.21501848  0.47982785    -0.17800
C225        C  0.16189258  0.29538162  0.61636750    -0.16900
C226        C  0.14015949  0.27140348  0.62366307     0.07100
C227        C  0.11327455  0.24459324  0.63210187     0.09000
C228        C  0.08908653  0.22273600  0.63903586    -0.17800
C229        C  0.41804228  0.22276136  0.63737322    -0.16900
C230        C  0.39423206  0.24462290  0.63007434     0.07100
C231        C  0.36758780  0.27143429  0.62144711     0.09000
C232        C  0.34579444  0.29541013  0.61425678    -0.17800
C233        C  0.34568329  0.46647804  0.61318870    -0.16900
C234        C  0.36749056  0.49053389  0.62022375     0.07100
C235        C  0.39416741  0.01728454  0.62882143     0.09000
C236        C  0.41800567  0.03896135  0.63622308    -0.17800
C237        C  0.16190568  0.46644007  0.61527733    -0.16900
C238        C  0.14016567  0.49047311  0.62244046     0.07100
C239        C  0.11326637  0.01719478  0.63087838     0.09000
C240        C  0.08906331  0.03885952  0.63793295    -0.17800
C241        C  0.16526826  0.12735963  0.77385592    -0.16900
C242        C  0.14026906  0.12779414  0.76003907     0.07100
C243        C  0.11133791  0.12832489  0.74366058     0.09000
C244        C  0.08657190  0.12874002  0.72970565    -0.17800
C245        C  0.33665903  0.12738535  0.77290943    -0.16900
C246        C  0.36138421  0.12781920  0.75887207     0.07100
C247        C  0.39021886  0.12834166  0.74236481     0.09000
C248        C  0.41518250  0.12874660  0.72846737    -0.17800
C249        C  0.49958480  0.04094098  0.02284408    -0.16900
C250        C  0.49990101  0.01623991  0.00884940     0.07100
C251        C  0.50025706  0.48737199  0.99242919     0.09000
C252        C  0.50052113  0.46238773  0.97860114    -0.17800
C253        C  0.99955232  0.21233195  0.02424051    -0.16900
C254        C  0.49986152  0.23737035  0.01039149     0.07100
C255        C  0.50022003  0.26627722  0.99393246     0.09000
C256        C  0.50049234  0.29101964  0.97990847    -0.17800
C257        C  0.09377164  0.28933548  0.88877489    -0.16900
C258        C  0.11561639  0.26528706  0.88171784     0.07100
C259        C  0.14243108  0.23854696  0.87318408     0.09000
C260        C  0.16642676  0.21687643  0.86588901    -0.17800
C261        C  0.40984580  0.28938969  0.88811829    -0.16900
C262        C  0.38815214  0.26532495  0.88098050     0.07100
C263        C  0.36144465  0.23855974  0.87243195     0.09000
C264        C  0.33745657  0.21687087  0.86520467    -0.17800
C265        C  0.40993626  0.46043262  0.88679508    -0.16900
C266        C  0.38825422  0.48439082  0.87947248     0.07100
C267        C  0.36153903  0.01119084  0.87090210     0.09000
C268        C  0.33753404  0.03305479  0.86381680    -0.17800
C269        C  0.16647012  0.03291070  0.86448875    -0.16900
C270        C  0.14248082  0.01105445  0.87165145     0.07100
C271        C  0.11567291  0.48428571  0.88021791     0.09000
C272        C  0.09383270  0.46036109  0.88746781    -0.17800
Fe273      Fe  0.00187087  0.87481458  0.88552032     1.65800
Fe274      Fe  0.45165859  0.87583166  0.93458220     1.73200
Fe275      Fe  0.05067128  0.87581011  0.93495211     1.54400
O276        O  0.07485554  0.83272230  0.91591065    -0.80100
O277        O  0.46870829  0.91896439  0.95590892    -0.78400
O278        O  0.04309045  0.83205628  0.88383969    -0.82600
O279        O  0.04320350  0.91738681  0.88314530    -0.77500
O280        O  0.03299558  0.83359453  0.95684336    -0.79200
O281        O  0.42803109  0.91807180  0.91467341    -0.82000
C282        C  0.06914045  0.93048075  0.89578979     0.98800
C283        C  0.06907259  0.81951188  0.89666431     1.06200
O284        O  0.50140009  0.87548562  0.91835556    -1.11000
O285        O  0.42805191  0.83270510  0.91539732    -0.73400
O286        O  0.46060409  0.83215795  0.88352289    -0.76900
O287        O  0.07485273  0.91810725  0.91525223    -0.77600
C288        C  0.43431877  0.81956140  0.89617595     0.97700
O289        O  0.46071419  0.91748832  0.88284373    -0.75500
O290        O  0.46870797  0.83367350  0.95663543    -0.80700
C291        C  0.50075893  0.93186218  0.96262563     1.00300
C292        C  0.50074892  0.82097804  0.96351861     1.06200
O293        O  0.03299749  0.91889912  0.95618616    -0.76400
C294        C  0.43436809  0.93052283  0.89527938     1.04500
Fe295      Fe  0.25195928  0.62484768  0.86711681     1.65800
Fe296      Fe  0.25153681  0.67565218  0.81825465     1.73200
Fe297      Fe  0.25155435  0.57665808  0.81748529     1.54400
O298        O  0.29447697  0.55228177  0.83657403    -0.80100
O299        O  0.20858878  0.65887952  0.79673652    -0.78400
O300        O  0.29468850  0.58359992  0.86879200    -0.82600
O301        O  0.20935134  0.58350944  0.86915393    -0.77500
O302        O  0.29396275  0.59460501  0.79578271    -0.79200
O303        O  0.20911500  0.69907955  0.83811358    -0.82000
C304        C  0.19644205  0.55769554  0.85636916     0.98800
C305        C  0.30742781  0.55781377  0.85590458     1.06200
O306        O  0.25168906  0.62571848  0.83428159    -1.11000
O307        O  0.29448937  0.69896589  0.83768296    -0.73400
O308        O  0.29460060  0.66608447  0.86945237    -0.76900
O309        O  0.20907693  0.55218965  0.83694407    -0.77600
C310        C  0.30737835  0.69249058  0.85694143     0.97700
O311        O  0.20925167  0.66597223  0.86979924    -0.75500
O312        O  0.29389283  0.65887509  0.79625333    -0.80700
C313        C  0.19572932  0.62691682  0.78986696     1.00300
C314        C  0.30663062  0.62692659  0.78926385     1.06200
O315        O  0.20864440  0.59459707  0.79620315    -0.76400
C316        C  0.19640697  0.69250274  0.85742568     1.04500
Fe317      Fe  0.25392762  0.88094054  0.61705609     1.65800
Fe318      Fe  0.20283132  0.88017738  0.56841080     1.73200
Fe319      Fe  0.30182416  0.88018008  0.56722361     1.54400
O320        O  0.32634964  0.92320772  0.58612094    -0.80100
O321        O  0.21944277  0.83708756  0.54693101    -0.78400
O322        O  0.29517110  0.92368090  0.61844934    -0.82600
O323        O  0.29528625  0.83837007  0.61901853    -0.77500
O324        O  0.28374174  0.92246714  0.54551607    -0.79200
O325        O  0.17953453  0.83791379  0.58846290    -0.82000
C326        C  0.32100289  0.82534176  0.60615666     0.98800
C327        C  0.32090233  0.93631185  0.60543579     1.06200
O328        O  0.25286564  0.88043578  0.58422630    -1.11000
O329        O  0.17966010  0.92326490  0.58781955    -0.73400
O330        O  0.21270051  0.92359445  0.61946350    -0.76900
O331        O  0.32639161  0.83781364  0.58667297    -0.77600
C332        C  0.18624002  0.93629265  0.60701728     0.97700
O333        O  0.21282660  0.83823716  0.62001458    -0.75500
O334        O  0.21946792  0.92236322  0.54624867    -0.80700
C335        C  0.25135415  0.82419735  0.53993914     1.00300
C336        C  0.25136822  0.93508028  0.53910955     1.06200
O337        O  0.28372517  0.83715391  0.54609911    -0.76400
C338        C  0.18622497  0.82531971  0.60777126     1.04500
Fe339      Fe  0.00366065  0.63088046  0.63535958     1.65800
Fe340      Fe  0.00200067  0.58028424  0.68428980     1.73200
Fe341      Fe  0.00201628  0.67927342  0.68491770     1.54400
O342        O  0.04524382  0.70367590  0.66598306    -0.80100
O343        O  0.45866355  0.59713960  0.70562217    -0.78400
O344        O  0.04646847  0.67207105  0.63387172    -0.82600
O345        O  0.46114460  0.67225324  0.63301446    -0.77500
O346        O  0.04409386  0.66144121  0.70676551    -0.79200
O347        O  0.45996446  0.55685665  0.66425189    -0.82000
C348        C  0.44780927  0.69802255  0.64571325     0.98800
C349        C  0.05877885  0.69799703  0.64677545     1.06200
O350        O  0.00254707  0.63014656  0.66819243    -1.11000
O351        O  0.04532351  0.55682082  0.66511664    -0.73400
O352        O  0.04634082  0.58963545  0.63333527    -0.76900
O353        O  0.45985782  0.70353594  0.66523747    -0.77600
C354        C  0.05875211  0.56324968  0.64595215     0.97700
O355        O  0.46100834  0.58975812  0.63249260    -0.75500
O356        O  0.04395605  0.59715719  0.70642168    -0.80700
C357        C  0.44575465  0.62912502  0.71244894     1.00300
C358        C  0.05664974  0.62913904  0.71336240     1.06200
O359        O  0.45877886  0.66141034  0.70610283    -0.76400
C360        C  0.44779009  0.56333376  0.64483902     1.04500
Fe361      Fe  0.24663825  0.63240696  0.38538849     1.65800
Fe362      Fe  0.29724803  0.63064321  0.43420178     1.73200
Fe363      Fe  0.19825465  0.63064615  0.43505637     1.54400
O364        O  0.17386954  0.67395337  0.41622241    -0.80100
O365        O  0.28041633  0.58724764  0.45551625    -0.78400
O366        O  0.20542994  0.67518962  0.38402708    -0.82600
O367        O  0.20528646  0.58988852  0.38310520    -0.77500
O368        O  0.21611185  0.67263058  0.45692331    -0.79200
O369        O  0.32067662  0.58868633  0.41408453    -0.82000
C370        C  0.17949125  0.57654942  0.39584031     0.98800
C371        C  0.17953422  0.68750361  0.39700318     1.06200
O372        O  0.24737637  0.63122132  0.41821882    -1.11000
O373        O  0.32066706  0.67402125  0.41502529    -0.73400
O374        O  0.28786162  0.67511002  0.38330884    -0.76900
O375        O  0.17395300  0.58857408  0.41537832    -0.77600
C376        C  0.31422809  0.68750284  0.39588963     0.97700
O377        O  0.28777448  0.58977621  0.38239632    -0.75500
O378        O  0.28039828  0.67250844  0.45640926    -0.80700
C379        C  0.24844073  0.57428956  0.46239327     1.00300
C380        C  0.24842742  0.68516497  0.46345053     1.06200
O381        O  0.21613631  0.58731871  0.45614226    -0.76400
C382        C  0.31419957  0.57654255  0.39468317     1.04500
Fe383      Fe  0.49683628  0.88268275  0.36718219     1.65800
Fe384      Fe  0.49794945  0.83144765  0.31859299     1.73200
Fe385      Fe  0.49793984  0.93041914  0.31729507     1.54400
O386        O  0.45481535  0.95500626  0.33617298    -0.80100
O387        O  0.04112612  0.84799228  0.29706967    -0.78400
O388        O  0.45408682  0.92392317  0.36853091    -0.82600
O389        O  0.03939959  0.92403677  0.36909909    -0.77500
O390        O  0.45573968  0.91226633  0.29563416    -0.79200
O391        O  0.04012167  0.80824573  0.33865553    -0.82000
C392        C  0.05253282  0.94970434  0.35621090     0.98800
C393        C  0.44155597  0.94961067  0.35548402     1.06200
O394        O  0.49757979  0.88152189  0.33435329    -1.11000
O395        O  0.45477509  0.80832731  0.33803296    -0.73400
O396        O  0.45414424  0.84149473  0.36962605    -0.76900
O397        O  0.04021488  0.95502716  0.33671235    -0.77600
C398        C  0.44156293  0.81499208  0.35720310     0.97700
O399        O  0.03950495  0.84158042  0.37018909    -0.75500
O400        O  0.45585507  0.84799992  0.29644511    -0.80700
C401        C  0.05403821  0.87987383  0.29002527     1.00300
C402        C  0.44314798  0.87986908  0.28928421     1.06200
O403        O  0.04106657  0.91226214  0.29616239    -0.76400
C404        C  0.05254279  0.81497232  0.35796993     1.04500
Fe405      Fe  0.49748344  0.62381749  0.11726195     1.65800
Fe406      Fe  0.04807032  0.62541423  0.06833195     1.73200
Fe407      Fe  0.44907426  0.62538709  0.06770058     1.54400
O408        O  0.42472912  0.58213692  0.08662489    -0.80100
O409        O  0.03120311  0.66877643  0.04701927    -0.78400
O410        O  0.45628696  0.58102326  0.11875935    -0.82600
O411        O  0.45611976  0.66633768  0.11958570    -0.77500
O412        O  0.46691005  0.58335095  0.04583373    -0.79200
O413        O  0.07153873  0.66742821  0.08837432    -0.82000
C414        C  0.43031467  0.67961680  0.10688801     0.98800
C415        C  0.43040129  0.56865367  0.10584522     1.06200
O416        O  0.49820905  0.62488172  0.08442827    -1.11000
O417        O  0.07150197  0.58207464  0.08750627    -0.73400
O418        O  0.03872980  0.58114038  0.11930342    -0.76900
O419        O  0.42477021  0.66750861  0.08738064    -0.77600
C420        C  0.06508836  0.56868758  0.10668282     0.97700
O421        O  0.03861082  0.66646649  0.12012067    -0.75500
O422        O  0.03119508  0.58348297  0.04617785    -0.80700
C423        C  0.99920420  0.68169759  0.04021113     1.00300
C424        C  0.49920857  0.57080812  0.03922451     1.06200
O425        O  0.46692044  0.66865049  0.04654365    -0.76400
C426        C  0.06505955  0.67964194  0.10777713     1.04500
Fe427      Fe  0.24745067  0.87354440  0.13552543     1.65800
Fe428      Fe  0.24830526  0.92465219  0.18415917     1.73200
Fe429      Fe  0.24829122  0.82567319  0.18536851     1.54400
O430        O  0.20528836  0.80109673  0.16646017    -0.80100
O431        O  0.29137079  0.90805238  0.20566329    -0.78400
O432        O  0.20469344  0.83231874  0.13414689    -0.82600
O433        O  0.29001085  0.83217653  0.13355934    -0.77500
O434        O  0.20595916  0.84376203  0.20703997    -0.79200
O435        O  0.29058584  0.94789039  0.16411229    -0.82000
C436        C  0.30310243  0.80650447  0.14643288     0.98800
C437        C  0.19212300  0.80655522  0.14715749     1.06200
O438        O  0.24801657  0.87461791  0.16835480    -1.11000
O439        O  0.20523489  0.94785087  0.16474549    -0.73400
O440        O  0.20479582  0.91476838  0.13312364    -0.76900
O441        O  0.29069504  0.80114828  0.16593340    -0.77600
C442        C  0.19214844  0.94125157  0.14556389     0.97700
O443        O  0.29015903  0.91462985  0.13255218    -0.75500
O444        O  0.20610050  0.90803442  0.20629693    -0.80700
C445        C  0.30423605  0.87615499  0.21268781     1.00300
C446        C  0.19334714  0.87614494  0.21342440     1.06200
O447        O  0.29128913  0.84378345  0.20652671    -0.76400
C448        C  0.30313115  0.94119838  0.14479686     1.04500
C449        C  0.16195692  0.78175231  0.13941459    -0.16900
C450        C  0.13789978  0.75993734  0.13238199     0.07100
C451        C  0.11114254  0.73325744  0.12378451     0.09000
C452        C  0.08945554  0.70942148  0.11638503    -0.17800
C453        C  0.40558159  0.70939773  0.11520779    -0.16900
C454        C  0.38374606  0.73323406  0.12249750     0.07100
C455        C  0.35697411  0.75990916  0.13112553     0.09000
C456        C  0.33302406  0.78171727  0.13832357    -0.17800
C457        C  0.40570313  0.53832889  0.11358306    -0.16900
C458        C  0.38386502  0.51412001  0.12050015     0.07100
C459        C  0.35706289  0.98722164  0.12891368     0.09000
C460        C  0.33307881  0.96549384  0.13619643    -0.17800
C461        C  0.16198106  0.96558036  0.13732074    -0.16900
C462        C  0.13791520  0.98730722  0.13017875     0.07100
C463        C  0.11115504  0.51418750  0.12176070     0.09000
C464        C  0.08947185  0.53837961  0.11471150    -0.17800
C465        C  0.16332620  0.87678062  0.22976088    -0.16900
C466        C  0.13854254  0.87752068  0.24374733     0.07100
C467        C  0.10961762  0.87847409  0.26017613     0.09000
C468        C  0.08459618  0.87922106  0.27402182    -0.17800
C469        C  0.41320889  0.87919542  0.27295030    -0.16900
C470        C  0.38849493  0.87844639  0.25896788     0.07100
C471        C  0.35965161  0.87750026  0.24254139     0.09000
C472        C  0.33470527  0.87677071  0.22869554    -0.17800
C473        C  0.15482097  0.71783740  0.38932992    -0.16900
C474        C  0.13302375  0.74204598  0.38240650     0.07100
C475        C  0.10630693  0.76894033  0.37394173     0.09000
C476        C  0.08240683  0.79066652  0.36660778    -0.17800
C477        C  0.33859469  0.71785813  0.38787104    -0.16900
C478        C  0.36031492  0.74209273  0.38087417     0.07100
C479        C  0.38715826  0.76900089  0.37253518     0.09000
C480        C  0.41130964  0.79072020  0.36544231    -0.17800
C481        C  0.33857363  0.54676538  0.38602367    -0.16900
C482        C  0.36030511  0.52291227  0.37865392     0.07100
C483        C  0.38715742  0.99621236  0.37014039     0.09000
C484        C  0.41130647  0.97439238  0.36318111    -0.17800
C485        C  0.15476709  0.54679790  0.38752313    -0.16900
C486        C  0.13297368  0.52298824  0.38020482     0.07100
C487        C  0.10627385  0.49633480  0.37153162     0.09000
C488        C  0.08238917  0.97452608  0.36430840    -0.17800
C489        C  0.25077339  0.96504272  0.52272568    -0.16900
C490        C  0.25016318  0.98976161  0.50869224     0.07100
C491        C  0.24942441  0.51863051  0.49221630     0.09000
C492        C  0.24887461  0.54364826  0.47835816    -0.17800
C493        C  0.25077229  0.79366771  0.52398033    -0.16900
C494        C  0.25016505  0.76865037  0.51018240     0.07100
C495        C  0.24942749  0.73974069  0.49380117     0.09000
C496        C  0.24887582  0.71501854  0.47982783    -0.17800
C497        C  0.16189263  0.79538151  0.61636741    -0.16900
C498        C  0.14015957  0.77140341  0.62366305     0.07100
C499        C  0.11327456  0.74459330  0.63210188     0.09000
C500        C  0.08908655  0.72273608  0.63903588    -0.17800
C501        C  0.41804221  0.72276129  0.63737324    -0.16900
C502        C  0.39423208  0.74462290  0.63007435     0.07100
C503        C  0.36758782  0.77143425  0.62144714     0.09000
C504        C  0.34579439  0.79541009  0.61425688    -0.17800
C505        C  0.34568325  0.96647814  0.61318866    -0.16900
C506        C  0.36749044  0.99053401  0.62022375     0.07100
C507        C  0.39416747  0.51728452  0.62882142     0.09000
C508        C  0.41800573  0.53896132  0.63622309    -0.17800
C509        C  0.16190564  0.96644011  0.61527732    -0.16900
C510        C  0.14016555  0.99047307  0.62244045     0.07100
C511        C  0.11326644  0.51719479  0.63087838     0.09000
C512        C  0.08906337  0.53885957  0.63793290    -0.17800
C513        C  0.16526830  0.62735975  0.77385592    -0.16900
C514        C  0.14026911  0.62779430  0.76003907     0.07100
C515        C  0.11133796  0.62832498  0.74366058     0.09000
C516        C  0.08657196  0.62873998  0.72970565    -0.17800
C517        C  0.33665907  0.62738535  0.77290940    -0.16900
C518        C  0.36138419  0.62781911  0.75887200     0.07100
C519        C  0.39021889  0.62834152  0.74236479     0.09000
C520        C  0.41518255  0.62874654  0.72846737    -0.17800
C521        C  0.49958476  0.54094097  0.02284409    -0.16900
C522        C  0.49990110  0.51623994  0.00884940     0.07100
C523        C  0.50025691  0.98737201  0.99242919     0.09000
C524        C  0.50052117  0.96238772  0.97860114    -0.17800
C525        C  0.99955234  0.71233185  0.02424048    -0.16900
C526        C  0.49986128  0.73737023  0.01039147     0.07100
C527        C  0.50021984  0.76627711  0.99393243     0.09000
C528        C  0.50049230  0.79101957  0.97990846    -0.17800
C529        C  0.09377162  0.78933557  0.88877483    -0.16900
C530        C  0.11561632  0.76528709  0.88171780     0.07100
C531        C  0.14243098  0.73854697  0.87318406     0.09000
C532        C  0.16642672  0.71687649  0.86588899    -0.17800
C533        C  0.40984568  0.78938985  0.88811828    -0.16900
C534        C  0.38815210  0.76532503  0.88098049     0.07100
C535        C  0.36144471  0.73855965  0.87243195     0.09000
C536        C  0.33745664  0.71687073  0.86520468    -0.17800
C537        C  0.40993633  0.96043261  0.88679507    -0.16900
C538        C  0.38825431  0.98439072  0.87947238     0.07100
C539        C  0.36153889  0.51119087  0.87090216     0.09000
C540        C  0.33753386  0.53305473  0.86381683    -0.17800
C541        C  0.16647014  0.53291073  0.86448874    -0.16900
C542        C  0.14248084  0.51105454  0.87165147     0.07100
C543        C  0.11567284  0.98428564  0.88021788     0.09000
C544        C  0.09383268  0.96036101  0.88746781    -0.17800
Fe545      Fe  0.50187082  0.37481463  0.88552034     1.65800
Fe546      Fe  0.95165860  0.37583156  0.93458220     1.73200
Fe547      Fe  0.55067135  0.37581019  0.93495212     1.54400
O548        O  0.57485561  0.33272232  0.91591073    -0.80100
O549        O  0.96870826  0.41896427  0.95590895    -0.78400
O550        O  0.54309053  0.33205640  0.88383976    -0.82600
O551        O  0.54320344  0.41738693  0.88314537    -0.77500
O552        O  0.53299563  0.33359462  0.95684340    -0.79200
O553        O  0.92803119  0.41807187  0.91467345    -0.82000
C554        C  0.56914053  0.43048076  0.89578981     0.98800
C555        C  0.56907265  0.31951192  0.89666438     1.06200
O556        O  0.00140011  0.37548555  0.91835557    -1.11000
O557        O  0.92805188  0.33270499  0.91539734    -0.73400
O558        O  0.96060419  0.33215784  0.88352296    -0.76900
O559        O  0.57485289  0.41810720  0.91525223    -0.77600
C560        C  0.93431880  0.31956130  0.89617598     0.97700
O561        O  0.96071408  0.41748822  0.88284370    -0.75500
O562        O  0.96870790  0.33367335  0.95663541    -0.80700
C563        C  0.00075889  0.43186216  0.96262563     1.00300
C564        C  0.00074889  0.32097804  0.96351859     1.06200
O565        O  0.53299759  0.41889923  0.95618614    -0.76400
C566        C  0.93436810  0.43052283  0.89527939     1.04500
Fe567      Fe  0.75195929  0.12484773  0.86711682     1.65800
Fe568      Fe  0.75153672  0.17565227  0.81825466     1.73200
Fe569      Fe  0.75155439  0.07665804  0.81748529     1.54400
O570        O  0.79447701  0.05228170  0.83657404    -0.80100
O571        O  0.70858870  0.15887950  0.79673651    -0.78400
O572        O  0.79468849  0.08359991  0.86879199    -0.82600
O573        O  0.70935123  0.08350958  0.86915393    -0.77500
O574        O  0.79396272  0.09460509  0.79578274    -0.79200
O575        O  0.70911504  0.19907946  0.83811368    -0.82000
C576        C  0.69644205  0.05769561  0.85636916     0.98800
C577        C  0.80742782  0.05781374  0.85590459     1.06200
O578        O  0.75168895  0.12571852  0.83428158    -1.11000
O579        O  0.79448934  0.19896600  0.83768297    -0.73400
O580        O  0.79460070  0.16608448  0.86945234    -0.76900
O581        O  0.70907699  0.05218969  0.83694409    -0.77600
C582        C  0.80737839  0.19249063  0.85694142     0.97700
O583        O  0.70925159  0.16597216  0.86979935    -0.75500
O584        O  0.79389276  0.15887520  0.79625333    -0.80700
C585        C  0.69572927  0.12691675  0.78986698     1.00300
C586        C  0.80663052  0.12692668  0.78926385     1.06200
O587        O  0.70864443  0.09459701  0.79620315    -0.76400
C588        C  0.69640696  0.19250267  0.85742577     1.04500
Fe589      Fe  0.75392766  0.38094048  0.61705610     1.65800
Fe590      Fe  0.70283133  0.38017730  0.56841082     1.73200
Fe591      Fe  0.80182417  0.38018012  0.56722362     1.54400
O592        O  0.82634973  0.42320760  0.58612099    -0.80100
O593        O  0.71944268  0.33708747  0.54693101    -0.78400
O594        O  0.79517105  0.42368084  0.61844935    -0.82600
O595        O  0.79528631  0.33837009  0.61901850    -0.77500
O596        O  0.78374158  0.42246706  0.54551607    -0.79200
O597        O  0.67953443  0.33791376  0.58846292    -0.82000
C598        C  0.82100292  0.32534183  0.60615659     0.98800
C599        C  0.82090236  0.43631173  0.60543584     1.06200
O600        O  0.75286568  0.38043568  0.58422632    -1.11000
O601        O  0.67966019  0.42326489  0.58781955    -0.73400
O602        O  0.71270060  0.42359445  0.61946349    -0.76900
O603        O  0.82639165  0.33781378  0.58667293    -0.77600
C604        C  0.68624009  0.43629263  0.60701729     0.97700
O605        O  0.71282656  0.33823720  0.62001459    -0.75500
O606        O  0.71946777  0.42236322  0.54624869    -0.80700
C607        C  0.75135409  0.32419736  0.53993914     1.00300
C608        C  0.75136808  0.43508021  0.53910954     1.06200
O609        O  0.78372509  0.33715394  0.54609915    -0.76400
C610        C  0.68622483  0.32531980  0.60777131     1.04500
Fe611      Fe  0.50366070  0.13088039  0.63535959     1.65800
Fe612      Fe  0.50200070  0.08028415  0.68428981     1.73200
Fe613      Fe  0.50201632  0.17927344  0.68491770     1.54400
O614        O  0.54524390  0.20367583  0.66598307    -0.80100
O615        O  0.95866352  0.09713964  0.70562218    -0.78400
O616        O  0.54646840  0.17207101  0.63387172    -0.82600
O617        O  0.96114464  0.17225327  0.63301443    -0.77500
O618        O  0.54409373  0.16144116  0.70676553    -0.79200
O619        O  0.95996448  0.05685650  0.66425186    -0.82000
C620        C  0.94780931  0.19802256  0.64571324     0.98800
C621        C  0.55877882  0.19799698  0.64677543     1.06200
O622        O  0.50254713  0.13014651  0.66819244    -1.11000
O623        O  0.54532358  0.05682082  0.66511667    -0.73400
O624        O  0.54634092  0.08963544  0.63333530    -0.76900
O625        O  0.95985779  0.20353588  0.66523747    -0.77600
C626        C  0.55875219  0.06324968  0.64595218     0.97700
O627        O  0.96100817  0.08975817  0.63249263    -0.75500
O628        O  0.54395611  0.09715713  0.70642168    -0.80700
C629        C  0.94575468  0.12912508  0.71244896     1.00300
C630        C  0.55664968  0.12913902  0.71336241     1.06200
O631        O  0.95877886  0.16141041  0.70610284    -0.76400
C632        C  0.94779006  0.06333369  0.64483901     1.04500
Fe633      Fe  0.74663825  0.13240701  0.38538849     1.65800
Fe634      Fe  0.79724804  0.13064310  0.43420180     1.73200
Fe635      Fe  0.69825456  0.13064608  0.43505637     1.54400
O636        O  0.67386956  0.17395344  0.41622242    -0.80100
O637        O  0.78041627  0.08724753  0.45551622    -0.78400
O638        O  0.70542988  0.17518971  0.38402706    -0.82600
O639        O  0.70528654  0.08988849  0.38310520    -0.77500
O640        O  0.71611182  0.17263049  0.45692332    -0.79200
O641        O  0.82067661  0.08868623  0.41408452    -0.82000
C642        C  0.67949133  0.07654934  0.39584031     0.98800
C643        C  0.67953422  0.18750370  0.39700320     1.06200
O644        O  0.74737635  0.13122124  0.41821884    -1.11000
O645        O  0.82066696  0.17402130  0.41502533    -0.73400
O646        O  0.78786169  0.17510993  0.38330881    -0.76900
O647        O  0.67395304  0.08857397  0.41537832    -0.77600
C648        C  0.81422810  0.18750280  0.39588963     0.97700
O649        O  0.78777442  0.08977623  0.38239633    -0.75500
O650        O  0.78039828  0.17250823  0.45640936    -0.80700
C651        C  0.74844065  0.07428955  0.46239328     1.00300
C652        C  0.74842741  0.18516484  0.46345058     1.06200
O653        O  0.71613623  0.08731874  0.45614230    -0.76400
C654        C  0.81419948  0.07654247  0.39468316     1.04500
Fe655      Fe  0.99683636  0.38268280  0.36718219     1.65800
Fe656      Fe  0.99794948  0.33144767  0.31859299     1.73200
Fe657      Fe  0.99793993  0.43041907  0.31729507     1.54400
O658        O  0.95481540  0.45500619  0.33617296    -0.80100
O659        O  0.54112596  0.34799218  0.29706966    -0.78400
O660        O  0.95408693  0.42392330  0.36853094    -0.82600
O661        O  0.53939973  0.42403668  0.36909907    -0.77500
O662        O  0.95573976  0.41226642  0.29563414    -0.79200
O663        O  0.54012146  0.30824560  0.33865553    -0.82000
C664        C  0.55253291  0.44970429  0.35621089     0.98800
C665        C  0.94155606  0.44961074  0.35548402     1.06200
O666        O  0.99757987  0.38152187  0.33435330    -1.11000
O667        O  0.95477515  0.30832730  0.33803298    -0.73400
O668        O  0.95414424  0.34149487  0.36962602    -0.76900
O669        O  0.54021486  0.45502717  0.33671237    -0.77600
C670        C  0.94156291  0.31499218  0.35720310     0.97700
O671        O  0.53950494  0.34158035  0.37018909    -0.75500
O672        O  0.95585499  0.34800003  0.29644514    -0.80700
C673        C  0.55403814  0.37987370  0.29002528     1.00300
C674        C  0.94314798  0.37986921  0.28928420     1.06200
O675        O  0.54106657  0.41226203  0.29616241    -0.76400
C676        C  0.55254266  0.31497220  0.35796992     1.04500
Fe677      Fe  0.99748350  0.12381761  0.11726195     1.65800
Fe678      Fe  0.54807038  0.12541414  0.06833194     1.73200
Fe679      Fe  0.94907432  0.12538703  0.06770058     1.54400
O680        O  0.92472921  0.08213683  0.08662488    -0.80100
O681        O  0.53120306  0.16877635  0.04701926    -0.78400
O682        O  0.95628700  0.08102339  0.11875935    -0.82600
O683        O  0.95611981  0.16633779  0.11958567    -0.77500
O684        O  0.96691007  0.08335085  0.04583376    -0.79200
O685        O  0.57153883  0.16742806  0.08837434    -0.82000
C686        C  0.93031462  0.17961678  0.10688800     0.98800
C687        C  0.93040134  0.06865371  0.10584523     1.06200
O688        O  0.99820912  0.12488177  0.08442827    -1.11000
O689        O  0.57150201  0.08207451  0.08750625    -0.73400
O690        O  0.53872985  0.08114050  0.11930342    -0.76900
O691        O  0.92477014  0.16750856  0.08738063    -0.77600
C692        C  0.56508838  0.06868759  0.10668283     0.97700
O693        O  0.53861080  0.16646658  0.12012066    -0.75500
O694        O  0.53119514  0.08348297  0.04617782    -0.80700
C695        C  0.49920417  0.18169764  0.04021114     1.00300
C696        C  0.99920859  0.07080808  0.03922451     1.06200
O697        O  0.96692050  0.16865055  0.04654366    -0.76400
C698        C  0.56505964  0.17964187  0.10777714     1.04500
Fe699      Fe  0.74745071  0.37354448  0.13552543     1.65800
Fe700      Fe  0.74830508  0.42465222  0.18415917     1.73200
Fe701      Fe  0.74829130  0.32567316  0.18536853     1.54400
O702        O  0.70528843  0.30109680  0.16646015    -0.80100
O703        O  0.79137063  0.40805250  0.20566331    -0.78400
O704        O  0.70469349  0.33231888  0.13414689    -0.82600
O705        O  0.79001079  0.33217653  0.13355936    -0.77500
O706        O  0.70595923  0.34376197  0.20703999    -0.79200
O707        O  0.79058563  0.44789035  0.16411227    -0.82000
C708        C  0.80310247  0.30650452  0.14643291     0.98800
C709        C  0.69212305  0.30655533  0.14715748     1.06200
O710        O  0.74801658  0.37461791  0.16835482    -1.11000
O711        O  0.70523469  0.44785076  0.16474548    -0.73400
O712        O  0.70479596  0.41476856  0.13312354    -0.76900
O713        O  0.79069519  0.30114838  0.16593345    -0.77600
C714        C  0.69214840  0.44125157  0.14556385     0.97700
O715        O  0.79015911  0.41462976  0.13255218    -0.75500
O716        O  0.70610034  0.40803438  0.20629692    -0.80700
C717        C  0.80423603  0.37615513  0.21268780     1.00300
C718        C  0.69334712  0.37614485  0.21342442     1.06200
O719        O  0.79128919  0.34378355  0.20652670    -0.76400
C720        C  0.80313105  0.44119835  0.14479686     1.04500
C721        C  0.66195695  0.28175242  0.13941457    -0.16900
C722        C  0.63789977  0.25993747  0.13238198     0.07100
C723        C  0.61114248  0.23325756  0.12378452     0.09000
C724        C  0.58945562  0.20942145  0.11638503    -0.17800
C725        C  0.90558150  0.20939765  0.11520780    -0.16900
C726        C  0.88374609  0.23323408  0.12249750     0.07100
C727        C  0.85697411  0.25990915  0.13112555     0.09000
C728        C  0.83302405  0.28171726  0.13832358    -0.17800
C729        C  0.90570318  0.03832892  0.11358310    -0.16900
C730        C  0.88386508  0.01411995  0.12050015     0.07100
C731        C  0.85706265  0.48722176  0.12891369     0.09000
C732        C  0.83307860  0.46549393  0.13619644    -0.17800
C733        C  0.66198095  0.46558027  0.13732073    -0.16900
C734        C  0.63791513  0.48730710  0.13017871     0.07100
C735        C  0.61115513  0.01418765  0.12176081     0.09000
C736        C  0.58947190  0.03837969  0.11471157    -0.17800
C737        C  0.66332618  0.37678048  0.22976090    -0.16900
C738        C  0.63854241  0.37752053  0.24374731     0.07100
C739        C  0.60961746  0.37847393  0.26017609     0.09000
C740        C  0.58459606  0.37922088  0.27402180    -0.17800
C741        C  0.91320887  0.37919559  0.27295028    -0.16900
C742        C  0.88849482  0.37844654  0.25896791     0.07100
C743        C  0.85965150  0.37750040  0.24254142     0.09000
C744        C  0.83470525  0.37677089  0.22869551    -0.17800
C745        C  0.65482089  0.21783746  0.38932994    -0.16900
C746        C  0.63302368  0.24204598  0.38240649     0.07100
C747        C  0.60630686  0.26894034  0.37394173     0.09000
C748        C  0.58240675  0.29066643  0.36660775    -0.17800
C749        C  0.83859467  0.21785811  0.38787102    -0.16900
C750        C  0.86031492  0.24209279  0.38087421     0.07100
C751        C  0.88715829  0.26900099  0.37253530     0.09000
C752        C  0.91130964  0.29072032  0.36544236    -0.17800
C753        C  0.83857352  0.04676527  0.38602365    -0.16900
C754        C  0.86030497  0.02291213  0.37865392     0.07100
C755        C  0.88715753  0.49621249  0.37014038     0.09000
C756        C  0.91130657  0.47439251  0.36318109    -0.17800
C757        C  0.65476709  0.04679793  0.38752314    -0.16900
C758        C  0.63297351  0.02298835  0.38020491     0.07100
C759        C  0.60627370  0.99633494  0.37153165     0.09000
C760        C  0.58238932  0.47452595  0.36430840    -0.17800
C761        C  0.75077332  0.46504262  0.52272565    -0.16900
C762        C  0.75016304  0.48976155  0.50869222     0.07100
C763        C  0.74942426  0.01863046  0.49221627     0.09000
C764        C  0.74887452  0.04364822  0.47835813    -0.17800
C765        C  0.75077233  0.29366779  0.52398030    -0.16900
C766        C  0.75016513  0.26865045  0.51018236     0.07100
C767        C  0.74942757  0.23974074  0.49380115     0.09000
C768        C  0.74887584  0.21501849  0.47982786    -0.17800
C769        C  0.66189249  0.29538164  0.61636748    -0.16900
C770        C  0.64015952  0.27140342  0.62366309     0.07100
C771        C  0.61327459  0.24459320  0.63210187     0.09000
C772        C  0.58908651  0.22273601  0.63903584    -0.17800
C773        C  0.91804226  0.22276135  0.63737324    -0.16900
C774        C  0.89423211  0.24462292  0.63007434     0.07100
C775        C  0.86758789  0.27143435  0.62144710     0.09000
C776        C  0.84579447  0.29541016  0.61425679    -0.17800
C777        C  0.84568331  0.46647800  0.61318871    -0.16900
C778        C  0.86749049  0.49053393  0.62022376     0.07100
C779        C  0.89416738  0.01728453  0.62882144     0.09000
C780        C  0.91800571  0.03896130  0.63622308    -0.17800
C781        C  0.66190570  0.46644006  0.61527732    -0.16900
C782        C  0.64016565  0.49047307  0.62244045     0.07100
C783        C  0.61326648  0.01719480  0.63087839     0.09000
C784        C  0.58906342  0.03885954  0.63793293    -0.17800
C785        C  0.66526822  0.12735962  0.77385596    -0.16900
C786        C  0.64026911  0.12779414  0.76003906     0.07100
C787        C  0.61133799  0.12832490  0.74366054     0.09000
C788        C  0.58657195  0.12874005  0.72970564    -0.17800
C789        C  0.83665895  0.12738537  0.77290939    -0.16900
C790        C  0.86138415  0.12781920  0.75887204     0.07100
C791        C  0.89021890  0.12834166  0.74236483     0.09000
C792        C  0.91518257  0.12874664  0.72846741    -0.17800
C793        C  0.99958477  0.04094098  0.02284409    -0.16900
C794        C  0.99990097  0.01623991  0.00884940     0.07100
C795        C  0.00025697  0.48737199  0.99242919     0.09000
C796        C  0.00052116  0.46238773  0.97860114    -0.17800
C797        C  0.49955241  0.21233195  0.02424051    -0.16900
C798        C  0.99986136  0.23737035  0.01039149     0.07100
C799        C  0.00021994  0.26627722  0.99393246     0.09000
C800        C  0.00049237  0.29101964  0.97990847    -0.17800
C801        C  0.59377171  0.28933560  0.88877487    -0.16900
C802        C  0.61561634  0.26528707  0.88171782     0.07100
C803        C  0.64243100  0.23854694  0.87318407     0.09000
C804        C  0.66642678  0.21687650  0.86588902    -0.17800
C805        C  0.90984571  0.28938977  0.88811830    -0.16900
C806        C  0.88815207  0.26532500  0.88098051     0.07100
C807        C  0.86144470  0.23855970  0.87243194     0.09000
C808        C  0.83745664  0.21687078  0.86520466    -0.17800
C809        C  0.90993634  0.46043264  0.88679509    -0.16900
C810        C  0.88825433  0.48439083  0.87947248     0.07100
C811        C  0.86153895  0.01119082  0.87090211     0.09000
C812        C  0.83753392  0.03305476  0.86381684    -0.17800
C813        C  0.66647022  0.03291066  0.86448874    -0.16900
C814        C  0.64248093  0.01105443  0.87165145     0.07100
C815        C  0.61567288  0.48428572  0.88021791     0.09000
C816        C  0.59383274  0.46036106  0.88746783    -0.17800
Fe817      Fe  0.50187085  0.87481459  0.88552032     1.65800
Fe818      Fe  0.95165849  0.87583166  0.93458220     1.73200
Fe819      Fe  0.55067140  0.87581011  0.93495211     1.54400
O820        O  0.57485565  0.83272233  0.91591063    -0.80100
O821        O  0.96870814  0.91896440  0.95590893    -0.78400
O822        O  0.54309040  0.83205624  0.88383972    -0.82600
O823        O  0.54320357  0.91738679  0.88314530    -0.77500
O824        O  0.53299570  0.83359450  0.95684338    -0.79200
O825        O  0.92803109  0.91807183  0.91467341    -0.82000
C826        C  0.56914055  0.93048074  0.89578979     0.98800
C827        C  0.56907263  0.81951189  0.89666430     1.06200
O828        O  0.00140000  0.87548562  0.91835556    -1.11000
O829        O  0.92805192  0.83270507  0.91539732    -0.73400
O830        O  0.96060405  0.83215799  0.88352287    -0.76900
O831        O  0.57485285  0.91810725  0.91525223    -0.77600
C832        C  0.93431876  0.81956141  0.89617594     0.97700
O833        O  0.96071414  0.91748826  0.88284371    -0.75500
O834        O  0.96870784  0.83367347  0.95663546    -0.80700
C835        C  0.00075879  0.93186218  0.96262563     1.00300
C836        C  0.00074883  0.82097804  0.96351861     1.06200
O837        O  0.53299763  0.91889912  0.95618617    -0.76400
C838        C  0.93436807  0.93052281  0.89527937     1.04500
Fe839      Fe  0.75195932  0.62484768  0.86711681     1.65800
Fe840      Fe  0.75153677  0.67565219  0.81825458     1.73200
Fe841      Fe  0.75155440  0.57665808  0.81748529     1.54400
O842        O  0.79447704  0.55228177  0.83657404    -0.80100
O843        O  0.70858876  0.65887952  0.79673648    -0.78400
O844        O  0.79468857  0.58359992  0.86879200    -0.82600
O845        O  0.70935128  0.58350946  0.86915392    -0.77500
O846        O  0.79396281  0.59460501  0.79578272    -0.79200
O847        O  0.70911505  0.69907957  0.83811357    -0.82000
C848        C  0.69644195  0.55769558  0.85636914     0.98800
C849        C  0.80742786  0.55781375  0.85590459     1.06200
O850        O  0.75168899  0.62571850  0.83428156    -1.11000
O851        O  0.79448937  0.69896587  0.83768293    -0.73400
O852        O  0.79460066  0.66608447  0.86945236    -0.76900
O853        O  0.70907686  0.55218967  0.83694405    -0.77600
C854        C  0.80737837  0.69249059  0.85694142     0.97700
O855        O  0.70925165  0.66597220  0.86979924    -0.75500
O856        O  0.79389282  0.65887508  0.79625330    -0.80700
C857        C  0.69572930  0.62691679  0.78986697     1.00300
C858        C  0.80663061  0.62692659  0.78926383     1.06200
O859        O  0.70864446  0.59459706  0.79620314    -0.76400
C860        C  0.69640699  0.69250273  0.85742567     1.04500
Fe861      Fe  0.75392767  0.88094052  0.61705611     1.65800
Fe862      Fe  0.70283125  0.88017737  0.56841081     1.73200
Fe863      Fe  0.80182419  0.88018009  0.56722361     1.54400
O864        O  0.82634955  0.92320774  0.58612094    -0.80100
O865        O  0.71944269  0.83708753  0.54693100    -0.78400
O866        O  0.79517102  0.92368093  0.61844935    -0.82600
O867        O  0.79528633  0.83837008  0.61901854    -0.77500
O868        O  0.78374161  0.92246714  0.54551607    -0.79200
O869        O  0.67953440  0.83791383  0.58846291    -0.82000
C870        C  0.82100295  0.82534174  0.60615665     0.98800
C871        C  0.82090222  0.93631190  0.60543580     1.06200
O872        O  0.75286565  0.88043576  0.58422631    -1.11000
O873        O  0.67966016  0.92326494  0.58781955    -0.73400
O874        O  0.71270051  0.92359439  0.61946352    -0.76900
O875        O  0.82639169  0.83781364  0.58667297    -0.77600
C876        C  0.68624007  0.93629265  0.60701728     0.97700
O877        O  0.71282665  0.83823712  0.62001455    -0.75500
O878        O  0.71946778  0.92236321  0.54624868    -0.80700
C879        C  0.75135412  0.82419736  0.53993914     1.00300
C880        C  0.75136808  0.93508027  0.53910955     1.06200
O881        O  0.78372513  0.83715394  0.54609913    -0.76400
C882        C  0.68622491  0.82531973  0.60777127     1.04500
Fe883      Fe  0.50366072  0.63088045  0.63535958     1.65800
Fe884      Fe  0.50200073  0.58028423  0.68428980     1.73200
Fe885      Fe  0.50201634  0.67927341  0.68491770     1.54400
O886        O  0.54524381  0.70367592  0.66598306    -0.80100
O887        O  0.95866359  0.59713961  0.70562219    -0.78400
O888        O  0.54646844  0.67207109  0.63387171    -0.82600
O889        O  0.96114463  0.67225329  0.63301446    -0.77500
O890        O  0.54409381  0.66144119  0.70676554    -0.79200
O891        O  0.95996450  0.55685662  0.66425187    -0.82000
C892        C  0.94780924  0.69802254  0.64571326     0.98800
C893        C  0.55877881  0.69799705  0.64677544     1.06200
O894        O  0.50254718  0.63014655  0.66819243    -1.11000
O895        O  0.54532362  0.55682083  0.66511664    -0.73400
O896        O  0.54634095  0.58963547  0.63333527    -0.76900
O897        O  0.95985770  0.70353591  0.66523749    -0.77600
C898        C  0.55875223  0.56324970  0.64595215     0.97700
O899        O  0.96100824  0.58975817  0.63249261    -0.75500
O900        O  0.54395613  0.59715718  0.70642167    -0.80700
C901        C  0.94575468  0.62912502  0.71244896     1.00300
C902        C  0.55664973  0.62913904  0.71336241     1.06200
O903        O  0.95877878  0.66141035  0.70610281    -0.76400
C904        C  0.94779011  0.56333372  0.64483901     1.04500
Fe905      Fe  0.74663830  0.63240697  0.38538849     1.65800
Fe906      Fe  0.79724807  0.63064321  0.43420178     1.73200
Fe907      Fe  0.69825459  0.63064615  0.43505637     1.54400
O908        O  0.67386955  0.67395340  0.41622242    -0.80100
O909        O  0.78041623  0.58724766  0.45551623    -0.78400
O910        O  0.70542987  0.67518959  0.38402706    -0.82600
O911        O  0.70528657  0.58988851  0.38310520    -0.77500
O912        O  0.71611177  0.67263060  0.45692333    -0.79200
O913        O  0.82067668  0.58868635  0.41408452    -0.82000
C914        C  0.67949135  0.57654939  0.39584030     0.98800
C915        C  0.67953417  0.68750358  0.39700318     1.06200
O916        O  0.74737639  0.63122132  0.41821883    -1.11000
O917        O  0.82066704  0.67402129  0.41502531    -0.73400
O918        O  0.78786170  0.67510999  0.38330882    -0.76900
O919        O  0.67395307  0.58857407  0.41537830    -0.77600
C920        C  0.81422812  0.68750285  0.39588963     0.97700
O921        O  0.78777444  0.58977616  0.38239634    -0.75500
O922        O  0.78039823  0.67250841  0.45640925    -0.80700
C923        C  0.74844063  0.57428957  0.46239327     1.00300
C924        C  0.74842738  0.68516497  0.46345053     1.06200
O925        O  0.71613618  0.58731869  0.45614228    -0.76400
C926        C  0.81419956  0.57654253  0.39468317     1.04500
Fe927      Fe  0.99683621  0.88268275  0.36718219     1.65800
Fe928      Fe  0.99794955  0.83144765  0.31859299     1.73200
Fe929      Fe  0.99793986  0.93041915  0.31729506     1.54400
O930        O  0.95481530  0.95500623  0.33617297    -0.80100
O931        O  0.54112601  0.84799229  0.29706966    -0.78400
O932        O  0.95408682  0.92392320  0.36853091    -0.82600
O933        O  0.53939969  0.92403675  0.36909909    -0.77500
O934        O  0.95573960  0.91226635  0.29563419    -0.79200
O935        O  0.54012154  0.80824570  0.33865554    -0.82000
C936        C  0.55253281  0.94970437  0.35621090     0.98800
C937        C  0.94155595  0.94961067  0.35548401     1.06200
O938        O  0.99757972  0.88152189  0.33435328    -1.11000
O939        O  0.95477518  0.80832731  0.33803296    -0.73400
O940        O  0.95414423  0.84149473  0.36962605    -0.76900
O941        O  0.54021476  0.95502721  0.33671238    -0.77600
C942        C  0.94156296  0.81499208  0.35720309     0.97700
O943        O  0.53950503  0.84158044  0.37018909    -0.75500
O944        O  0.95585515  0.84799992  0.29644509    -0.80700
C945        C  0.55403818  0.87987383  0.29002529     1.00300
C946        C  0.94314797  0.87986908  0.28928422     1.06200
O947        O  0.54106662  0.91226216  0.29616242    -0.76400
C948        C  0.55254276  0.81497231  0.35796992     1.04500
Fe949      Fe  0.99748344  0.62381749  0.11726195     1.65800
Fe950      Fe  0.54807036  0.62541423  0.06833194     1.73200
Fe951      Fe  0.94907430  0.62538709  0.06770058     1.54400
O952        O  0.92472903  0.58213693  0.08662488    -0.80100
O953        O  0.53120301  0.66877643  0.04701928    -0.78400
O954        O  0.95628689  0.58102330  0.11875934    -0.82600
O955        O  0.95611979  0.66633772  0.11958567    -0.77500
O956        O  0.96691012  0.58335096  0.04583374    -0.79200
O957        O  0.57153884  0.66742820  0.08837432    -0.82000
C958        C  0.93031462  0.67961676  0.10688801     0.98800
C959        C  0.93040122  0.56865370  0.10584521     1.06200
O960        O  0.99820903  0.62488171  0.08442829    -1.11000
O961        O  0.57150194  0.58207461  0.08750625    -0.73400
O962        O  0.53872986  0.58114041  0.11930344    -0.76900
O963        O  0.92477012  0.66750857  0.08738064    -0.77600
C964        C  0.56508839  0.56868761  0.10668283     0.97700
O965        O  0.53861085  0.66646647  0.12012066    -0.75500
O966        O  0.53119503  0.58348299  0.04617786    -0.80700
C967        C  0.49920408  0.68169759  0.04021114     1.00300
C968        C  0.99920863  0.57080812  0.03922451     1.06200
O969        O  0.96692056  0.66865049  0.04654365    -0.76400
C970        C  0.56505960  0.67964193  0.10777714     1.04500
Fe971      Fe  0.74745070  0.87354439  0.13552543     1.65800
Fe972      Fe  0.74830516  0.92465219  0.18415917     1.73200
Fe973      Fe  0.74829131  0.82567320  0.18536852     1.54400
O974        O  0.70528846  0.80109673  0.16646017    -0.80100
O975        O  0.79137068  0.90805237  0.20566331    -0.78400
O976        O  0.70469356  0.83231872  0.13414689    -0.82600
O977        O  0.79001086  0.83217652  0.13355933    -0.77500
O978        O  0.70595927  0.84376205  0.20704000    -0.79200
O979        O  0.79058570  0.94789040  0.16411229    -0.82000
C980        C  0.80310244  0.80650446  0.14643287     0.98800
C981        C  0.69212311  0.80655520  0.14715749     1.06200
O982        O  0.74801664  0.87461791  0.16835480    -1.11000
O983        O  0.70523492  0.94785089  0.16474546    -0.73400
O984        O  0.70479578  0.91476834  0.13312364    -0.76900
O985        O  0.79069504  0.80114825  0.16593339    -0.77600
C986        C  0.69214844  0.94125156  0.14556389     0.97700
O987        O  0.79015894  0.91462987  0.13255218    -0.75500
O988        O  0.70610037  0.90803443  0.20629692    -0.80700
C989        C  0.80423609  0.87615500  0.21268780     1.00300
C990        C  0.69334713  0.87614493  0.21342441     1.06200
O991        O  0.79128926  0.84378343  0.20652669    -0.76400
C992        C  0.80313101  0.94119840  0.14479686     1.04500
C993        C  0.66195702  0.78175228  0.13941458    -0.16900
C994        C  0.63789984  0.75993733  0.13238198     0.07100
C995        C  0.61114248  0.73325751  0.12378453     0.09000
C996        C  0.58945549  0.70942154  0.11638505    -0.17800
C997        C  0.90558154  0.70939768  0.11520779    -0.16900
C998        C  0.88374611  0.73323408  0.12249751     0.07100
C999        C  0.85697420  0.75990921  0.13112554     0.09000
C1000       C  0.83302413  0.78171731  0.13832358    -0.17800
C1001       C  0.90570315  0.53832885  0.11358306    -0.16900
C1002       C  0.88386506  0.51411997  0.12050016     0.07100
C1003       C  0.85706274  0.98722166  0.12891367     0.09000
C1004       C  0.83307866  0.96549386  0.13619643    -0.17800
C1005       C  0.66198105  0.96558034  0.13732076    -0.16900
C1006       C  0.63791525  0.98730724  0.13017875     0.07100
C1007       C  0.61115502  0.51418748  0.12176070     0.09000
C1008       C  0.58947190  0.53837963  0.11471150    -0.17800
C1009       C  0.66332612  0.87678057  0.22976087    -0.16900
C1010       C  0.63854241  0.87752067  0.24374730     0.07100
C1011       C  0.60961749  0.87847408  0.26017611     0.09000
C1012       C  0.58459610  0.87922103  0.27402181    -0.17800
C1013       C  0.91320888  0.87919538  0.27295029    -0.16900
C1014       C  0.88849486  0.87844638  0.25896791     0.07100
C1015       C  0.85965155  0.87750027  0.24254142     0.09000
C1016       C  0.83470529  0.87677075  0.22869551    -0.17800
C1017       C  0.65482089  0.71783738  0.38932993    -0.16900
C1018       C  0.63302374  0.74204600  0.38240650     0.07100
C1019       C  0.60630689  0.76894033  0.37394173     0.09000
C1020       C  0.58240682  0.79066651  0.36660775    -0.17800
C1021       C  0.83859469  0.71785816  0.38787105    -0.16900
C1022       C  0.86031499  0.74209272  0.38087417     0.07100
C1023       C  0.88715835  0.76900084  0.37253519     0.09000
C1024       C  0.91130971  0.79072019  0.36544230    -0.17800
C1025       C  0.83857366  0.54676541  0.38602367    -0.16900
C1026       C  0.86030515  0.52291231  0.37865393     0.07100
C1027       C  0.88715746  0.99621239  0.37014040     0.09000
C1028       C  0.91130651  0.97439241  0.36318113    -0.17800
C1029       C  0.65476716  0.54679790  0.38752313    -0.16900
C1030       C  0.63297366  0.52298827  0.38020483     0.07100
C1031       C  0.60627386  0.49633480  0.37153163     0.09000
C1032       C  0.58238923  0.97452609  0.36430837    -0.17800
C1033       C  0.75077323  0.96504272  0.52272568    -0.16900
C1034       C  0.75016302  0.98976161  0.50869224     0.07100
C1035       C  0.74942430  0.51863051  0.49221630     0.09000
C1036       C  0.74887458  0.54364826  0.47835815    -0.17800
C1037       C  0.75077236  0.79366771  0.52398033    -0.16900
C1038       C  0.75016518  0.76865037  0.51018240     0.07100
C1039       C  0.74942763  0.73974069  0.49380117     0.09000
C1040       C  0.74887589  0.71501854  0.47982783    -0.17800
C1041       C  0.66189259  0.79538154  0.61636743    -0.16900
C1042       C  0.64015961  0.77140337  0.62366307     0.07100
C1043       C  0.61327460  0.74459326  0.63210189     0.09000
C1044       C  0.58908651  0.72273610  0.63903587    -0.17800
C1045       C  0.91804226  0.72276130  0.63737322    -0.16900
C1046       C  0.89423218  0.74462293  0.63007433     0.07100
C1047       C  0.86758793  0.77143427  0.62144713     0.09000
C1048       C  0.84579446  0.79541009  0.61425688    -0.17800
C1049       C  0.84568316  0.96647816  0.61318866    -0.16900
C1050       C  0.86749043  0.99053399  0.62022375     0.07100
C1051       C  0.89416740  0.51728456  0.62882143     0.09000
C1052       C  0.91800576  0.53896127  0.63622309    -0.17800
C1053       C  0.66190574  0.96644013  0.61527731    -0.16900
C1054       C  0.64016566  0.99047308  0.62244046     0.07100
C1055       C  0.61326651  0.51719478  0.63087838     0.09000
C1056       C  0.58906348  0.53885960  0.63793291    -0.17800
C1057       C  0.66526826  0.62735973  0.77385595    -0.16900
C1058       C  0.64026916  0.62779430  0.76003906     0.07100
C1059       C  0.61133805  0.62832498  0.74366054     0.09000
C1060       C  0.58657200  0.62874001  0.72970564    -0.17800
C1061       C  0.83665900  0.62738535  0.77290935    -0.16900
C1062       C  0.86138413  0.62781911  0.75887197     0.07100
C1063       C  0.89021893  0.62834151  0.74236481     0.09000
C1064       C  0.91518262  0.62874651  0.72846741    -0.17800
C1065       C  0.99958479  0.54094097  0.02284409    -0.16900
C1066       C  0.99990099  0.51623994  0.00884940     0.07100
C1067       C  0.00025696  0.98737201  0.99242919     0.09000
C1068       C  0.00052110  0.96238772  0.97860114    -0.17800
C1069       C  0.49955221  0.71233185  0.02424049    -0.16900
C1070       C  0.99986141  0.73737024  0.01039147     0.07100
C1071       C  0.00021999  0.76627711  0.99393243     0.09000
C1072       C  0.00049235  0.79101957  0.97990846    -0.17800
C1073       C  0.59377170  0.78933560  0.88877481    -0.16900
C1074       C  0.61561641  0.76528713  0.88171781     0.07100
C1075       C  0.64243104  0.73854698  0.87318406     0.09000
C1076       C  0.66642672  0.71687646  0.86588896    -0.17800
C1077       C  0.90984567  0.78938985  0.88811829    -0.16900
C1078       C  0.88815208  0.76532505  0.88098050     0.07100
C1079       C  0.86144477  0.73855963  0.87243194     0.09000
C1080       C  0.83745669  0.71687072  0.86520466    -0.17800
C1081       C  0.90993636  0.96043265  0.88679506    -0.16900
C1082       C  0.88825434  0.98439077  0.87947237     0.07100
C1083       C  0.86153900  0.51119088  0.87090215     0.09000
C1084       C  0.83753394  0.53305472  0.86381683    -0.17800
C1085       C  0.66647005  0.53291076  0.86448873    -0.16900
C1086       C  0.64248083  0.51105452  0.87165148     0.07100
C1087       C  0.61567296  0.98428564  0.88021789     0.09000
C1088       C  0.59383280  0.96036100  0.88746780    -0.17800
loop_ 
_geom_bond_atom_site_label_1 
_geom_bond_atom_site_label_2 
_geom_bond_distance 
_geom_bond_site_symmetry_2 
_ccdc_geom_bond_type 
Fe1           O7   2.064       .  S
Fe1           O6   2.064       .  S
Fe1         O561   2.064   1_455  S
Fe1         O558   2.064   1_455  S
Fe1         O556   1.984       .  S
Fe2           O5   2.064       .  S
Fe2           O9   2.065       .  S
Fe2          O13   2.065       .  S
Fe2          O18   2.065       .  S
Fe2          O12   1.984       .  S
Fe3          O21   2.065       .  S
Fe3           O8   2.065       .  S
Fe3          O15   2.066       .  S
Fe3           O4   2.066       .  S
Fe3         O556   1.984       .  S
O4           C11   1.267       .  A
O5           C19   1.267       .  A
O6           C11   1.267       .  A
O7           C10   1.267       .  A
O8          C564   1.267       .  A
O9           C22   1.267       .  A
C10          O15   1.267       .  A
C10         C272   1.435       .  S
C11         C257   1.435       .  S
O12        Fe545   1.984       .  S
O12        Fe547   1.984       .  S
O13          C16   1.267       .  A
O14        Fe545   2.064       .  S
O14          C16   1.267       .  A
C16         C261   1.435       .  S
O17        Fe545   2.064       .  S
O17          C22   1.267       .  A
O18          C20   1.267       .  A
C19         O565   1.267       .  A
C19         C252   1.435       .  S
C20         O552   1.267       .  A
C20         C256   1.435       .  S
O21         C563   1.267       .  A
C22         C265   1.435       .  S
Fe23         O39   2.064       .  S
Fe23         O29   2.064       .  S
Fe23         O36   2.064       .  S
Fe23         O28   2.064       .  S
Fe23         O34   1.984       .  S
Fe24         O27   2.064       .  S
Fe24         O31   2.066       .  S
Fe24         O35   2.065       .  S
Fe24         O40   2.065       .  S
Fe24         O34   1.984       .  S
Fe25         O43   2.065       .  S
Fe25         O30   2.065       .  S
Fe25         O37   2.066       .  S
Fe25         O26   2.066       .  S
Fe25         O34   1.984       .  S
O26          C33   1.267       .  A
O27          C41   1.267       .  A
O28          C33   1.267       .  A
O29          C32   1.267       .  A
O30          C42   1.267       .  A
O31          C44   1.267       .  A
C32          O37   1.267       .  A
C32         C269   1.435       .  S
C33         C268   1.435       .  S
O35          C38   1.267       .  A
O36          C38   1.267       .  A
C38         C264   1.435       .  S
O39          C44   1.267       .  A
O40          C42   1.267       .  A
C41          O43   1.267       .  A
C41         C241   1.434       .  S
C42         C245   1.435       .  S
C44         C260   1.435       .  S
Fe45         O61   2.065       .  S
Fe45         O51   2.064       .  S
Fe45         O58   2.064       .  S
Fe45         O50   2.064       .  S
Fe45         O56   1.984       .  S
Fe46         O49   2.064       .  S
Fe46         O53   2.065       .  S
Fe46         O57   2.065       .  S
Fe46         O62   2.064       .  S
Fe46         O56   1.984       .  S
Fe47         O65   2.065       .  S
Fe47         O52   2.065       .  S
Fe47         O59   2.066       .  S
Fe47         O48   2.066       .  S
Fe47         O56   1.984       .  S
O48          C55   1.267       .  A
O49          C63   1.267       .  A
O50          C55   1.267       .  A
O51          C54   1.266       .  A
O52          C64   1.267       .  A
O53          C66   1.267       .  A
C54          O59   1.267       .  A
C54         C232   1.435       .  S
C55         C233   1.435       .  S
O57          C60   1.267       .  A
O58          C60   1.267       .  A
C60         C237   1.435       .  S
O61          C66   1.267       .  A
O62          C64   1.267       .  A
C63          O65   1.267       .  A
C63         C221   1.434       .  S
C64         C217   1.435       .  S
C66         C225   1.435       .  S
Fe67         O80   2.064       .  S
Fe67         O72   2.064       .  S
Fe67        O627   2.064   1_455  S
Fe67        O617   2.064   1_455  S
Fe67         O78   1.984       .  S
Fe68         O79   2.065       .  S
Fe68         O84   2.064       .  S
Fe68        O615   2.064   1_455  S
Fe68        O619   2.065   1_455  S
Fe68         O78   1.984       .  S
Fe69         O74   2.064       .  S
Fe69         O70   2.066       .  S
Fe69        O631   2.065   1_455  S
Fe69        O625   2.066   1_455  S
Fe69         O78   1.984       .  S
O70          C77   1.267       .  A
O71        Fe612   2.064       .  S
O71          C85   1.267       .  A
O72          C77   1.267       .  A
O73        Fe611   2.064       .  S
O73          C76   1.267       .  A
O74          C86   1.267       .  A
O75        Fe612   2.065       .  S
O75          C88   1.267       .  A
C76          O81   1.267       .  A
C76         C229   1.435       .  S
C77         C228   1.435       .  S
O79          C82   1.267       .  A
O80          C82   1.266       .  A
O81        Fe613   2.066       .  S
C82         C240   1.435       .  S
O83        Fe611   2.064       .  S
O83          C88   1.267       .  A
O84          C86   1.267       .  A
C85          O87   1.267       .  A
C85         C248   1.435       .  S
C86         C244   1.434       .  S
O87        Fe613   2.065       .  S
C88         C236   1.435       .  S
Fe89        O105   2.064       .  S
Fe89         O95   2.064       .  S
Fe89        O102   2.064       .  S
Fe89         O94   2.063       .  S
Fe89        O100   1.984       .  S
Fe90         O93   2.064       .  S
Fe90         O97   2.065       .  S
Fe90        O101   2.064       .  S
Fe90        O106   2.064       .  S
Fe90        O100   1.984       .  S
Fe91        O109   2.065       .  S
Fe91         O96   2.065       .  S
Fe91        O103   2.066       .  S
Fe91         O92   2.066       .  S
Fe91        O100   1.984       .  S
O92          C99   1.267       .  A
O93         C107   1.267       .  A
O94          C99   1.266       .  A
O95          C98   1.267       .  A
O96         C108   1.267       .  A
O97         C110   1.267       .  A
C98         O103   1.267       .  A
C98         C213   1.435       .  S
C99         C201   1.435       .  S
O101        C104   1.267       .  A
O102        C104   1.266       .  A
C104        C205   1.434       .  S
O105        C110   1.267       .  A
O106        C108   1.267       .  A
C107        O109   1.267       .  A
C107        C220   1.435       .  S
C108        C224   1.434       .  S
C110        C209   1.435       .  S
Fe111       O124   2.064       .  S
Fe111       O116   2.063       .  S
Fe111       O671   2.064       .  S
Fe111       O661   2.063       .  S
Fe111       O122   1.984       .  S
Fe112       O123   2.064       .  S
Fe112       O128   2.064       .  S
Fe112       O659   2.063       .  S
Fe112       O663   2.065       .  S
Fe112       O122   1.984       .  S
Fe113       O118   2.065       .  S
Fe113       O114   2.066       .  S
Fe113       O675   2.065       .  S
Fe113       O669   2.066       .  S
Fe113       O122   1.984       .  S
O114        C121   1.267       .  A
O115       Fe656   2.063   1_455  S
O115        C129   1.267       .  A
O116        C121   1.267       .  A
O117       Fe655   2.063   1_455  S
O117        C120   1.267       .  A
O118        C130   1.267       .  A
O119       Fe656   2.065   1_455  S
O119        C132   1.267       .  A
C120        O125   1.267       .  A
C120        C216   1.435       .  S
C121        C212   1.435       .  S
O123        C126   1.267       .  A
O124        C126   1.267       .  A
O125       Fe657   2.066   1_455  S
C126        C208   1.434       .  S
O127       Fe655   2.064   1_455  S
O127        C132   1.267       .  A
O128        C130   1.267       .  A
C129        O131   1.267       .  A
C129        C196   1.434       .  S
C130        C197   1.435       .  S
O131       Fe657   2.065   1_455  S
C132        C204   1.435       .  S
Fe133       O139   2.064       .  S
Fe133       O138   2.064       .  S
Fe133       O693   2.064       .  S
Fe133       O690   2.064       .  S
Fe133       O144   1.984       .  S
Fe134       O137   2.064       .  S
Fe134       O141   2.066       .  S
Fe134       O145   2.065       .  S
Fe134       O150   2.065       .  S
Fe134       O688   1.984   1_455  S
Fe135       O153   2.065       .  S
Fe135       O140   2.065       .  S
Fe135       O147   2.065       .  S
Fe135       O136   2.065       .  S
Fe135       O144   1.984       .  S
O136        C143   1.267       .  A
O137        C151   1.267   1_455  A
O138        C143   1.267       .  A
O139        C142   1.267       .  A
O140        C152   1.267       .  A
O141        C154   1.267       .  A
C142        O147   1.267       .  A
C142        C181   1.435       .  S
C143        C185   1.435       .  S
O144       Fe678   1.984       .  S
O145        C148   1.267       .  A
O146       Fe677   2.064   1_455  S
O146        C148   1.267       .  A
C148        C192   1.434       .  S
O149       Fe677   2.064   1_455  S
O149        C154   1.267       .  A
O150        C696   1.267   1_455  A
C151        O697   1.267       .  A
C151        C253   1.435       .  S
C152        O694   1.267       .  A
C152        C249   1.435       .  S
O153        C695   1.267       .  A
C154        C180   1.435       .  S
Fe155       O171   2.064       .  S
Fe155       O161   2.064       .  S
Fe155       O168   2.064       .  S
Fe155       O160   2.063       .  S
Fe155       O166   1.984       .  S
Fe156       O159   2.064       .  S
Fe156       O163   2.064       .  S
Fe156       O167   2.064       .  S
Fe156       O172   2.063       .  S
Fe156       O166   1.984       .  S
Fe157       O175   2.065       .  S
Fe157       O162   2.065       .  S
Fe157       O169   2.066       .  S
Fe157       O158   2.066       .  S
Fe157       O166   1.984       .  S
O158        C165   1.267       .  A
O159        C173   1.267       .  A
O160        C165   1.267       .  A
O161        C164   1.267       .  A
O162        C174   1.267       .  A
O163        C176   1.267       .  A
C164        O169   1.267       .  A
C164        C184   1.435       .  S
C165        C177   1.435       .  S
O167        C170   1.267       .  A
O168        C170   1.267       .  A
C170        C189   1.434       .  S
O171        C176   1.267       .  A
O172        C174   1.267       .  A
C173        O175   1.267       .  A
C173        C200   1.435       .  S
C174        C193   1.434       .  S
C176        C188   1.435       .  S
C177        C178   1.206       .  T
C178        C179   1.412       .  S
C179        C180   1.206       .  T
C181        C182   1.205       .  T
C182        C183   1.412       .  S
C183        C184   1.205       .  T
C185        C186   1.205       .  T
C186        C459   1.411   1_545  S
C187        C188   1.205       .  T
C187        C458   1.411       .  S
C189        C190   1.205       .  T
C190        C463   1.411       .  S
C191        C192   1.205       .  T
C191        C462   1.411   1_545  S
C193        C194   1.205       .  T
C194        C195   1.411       .  S
C195        C196   1.205       .  T
C197        C198   1.205       .  T
C198        C199   1.411       .  S
C199        C200   1.205       .  T
C201        C202   1.205       .  T
C202        C203   1.412       .  S
C203        C204   1.205       .  T
C205        C206   1.205       .  T
C206        C207   1.411       .  S
C207        C208   1.205       .  T
C209        C210   1.205       .  T
C210        C483   1.411   1_545  S
C211        C212   1.205       .  T
C211        C482   1.411       .  S
C213        C214   1.206       .  T
C214        C215   1.412   1_545  S
C215        C488   1.206       .  T
C216        C487   1.206       .  T
C217        C218   1.205       .  T
C218        C491   1.411       .  S
C219        C220   1.205       .  T
C219        C490   1.411   1_545  S
C221        C222   1.205       .  T
C222        C223   1.411       .  S
C223        C224   1.205       .  T
C225        C226   1.206       .  T
C226        C227   1.412       .  S
C227        C228   1.206       .  T
C229        C230   1.206       .  T
C230        C231   1.412       .  S
C231        C232   1.206       .  T
C233        C234   1.206       .  T
C234        C507   1.412       .  S
C235        C236   1.206       .  T
C235        C506   1.412   1_545  S
C237        C238   1.205       .  T
C238        C511   1.411       .  S
C239        C240   1.205       .  T
C239        C510   1.411   1_545  S
C241        C242   1.205       .  T
C242        C243   1.411       .  S
C243        C244   1.205       .  T
C245        C246   1.206       .  T
C246        C247   1.412       .  S
C247        C248   1.206       .  T
C249        C250   1.205       .  T
C250        C523   1.411   1_544  S
C251        C252   1.205       .  T
C251        C522   1.411   1_556  S
C253        C798   1.205       .  T
C254        C797   1.205       .  T
C254        C255   1.411   1_554  S
C255        C256   1.205       .  T
C257        C258   1.206       .  T
C258        C259   1.412       .  S
C259        C260   1.206       .  T
C261        C262   1.205       .  T
C262        C263   1.412       .  S
C263        C264   1.205       .  T
C265        C266   1.206       .  T
C266        C539   1.412       .  S
C267        C268   1.206       .  T
C267        C538   1.412   1_545  S
C269        C270   1.206       .  T
C270        C543   1.412   1_545  S
C271        C272   1.206       .  T
C271        C542   1.412       .  S
Fe273       O833   2.064   1_455  S
Fe273       O279   2.064       .  S
Fe273       O830   2.064   1_455  S
Fe273       O278   2.064       .  S
Fe273       O828   1.984       .  S
Fe274       O277   2.064       .  S
Fe274       O281   2.065       .  S
Fe274       O285   2.065       .  S
Fe274       O290   2.065       .  S
Fe274       O284   1.984       .  S
Fe275       O293   2.065       .  S
Fe275       O280   2.065       .  S
Fe275       O287   2.066       .  S
Fe275       O276   2.066       .  S
Fe275       O828   1.984       .  S
O276        C283   1.267       .  A
O277        C291   1.267       .  A
O278        C283   1.267       .  A
O279        C282   1.267       .  A
O280        C836   1.267       .  A
O281        C294   1.267       .  A
C282        O287   1.267       .  A
C282        C544   1.435       .  S
C283        C529   1.435       .  S
O284       Fe817   1.984       .  S
O284       Fe819   1.984       .  S
O285        C288   1.267       .  A
O286       Fe817   2.064       .  S
O286        C288   1.267       .  A
C288        C533   1.435       .  S
O289       Fe817   2.064       .  S
O289        C294   1.267       .  A
O290        C292   1.267       .  A
C291        O837   1.267       .  A
C291        C524   1.435       .  S
C292        O824   1.267       .  A
C292        C528   1.435       .  S
O293        C835   1.267       .  A
C294        C537   1.435       .  S
Fe295       O311   2.064       .  S
Fe295       O301   2.064       .  S
Fe295       O308   2.064       .  S
Fe295       O300   2.064       .  S
Fe295       O306   1.984       .  S
Fe296       O299   2.064       .  S
Fe296       O303   2.066       .  S
Fe296       O307   2.065       .  S
Fe296       O312   2.065       .  S
Fe296       O306   1.984       .  S
Fe297       O315   2.065       .  S
Fe297       O302   2.065       .  S
Fe297       O309   2.066       .  S
Fe297       O298   2.066       .  S
Fe297       O306   1.984       .  S
O298        C305   1.267       .  A
O299        C313   1.267       .  A
O300        C305   1.267       .  A
O301        C304   1.267       .  A
O302        C314   1.267       .  A
O303        C316   1.267       .  A
C304        O309   1.267       .  A
C304        C541   1.435       .  S
C305        C540   1.435       .  S
O307        C310   1.267       .  A
O308        C310   1.267       .  A
C310        C536   1.435       .  S
O311        C316   1.267       .  A
O312        C314   1.267       .  A
C313        O315   1.267       .  A
C313        C513   1.434       .  S
C314        C517   1.435       .  S
C316        C532   1.435       .  S
Fe317       O333   2.065       .  S
Fe317       O323   2.064       .  S
Fe317       O330   2.064       .  S
Fe317       O322   2.064       .  S
Fe317       O328   1.984       .  S
Fe318       O321   2.064       .  S
Fe318       O325   2.065       .  S
Fe318       O329   2.065       .  S
Fe318       O334   2.064       .  S
Fe318       O328   1.984       .  S
Fe319       O337   2.065       .  S
Fe319       O324   2.065       .  S
Fe319       O331   2.066       .  S
Fe319       O320   2.066       .  S
Fe319       O328   1.984       .  S
O320        C327   1.267       .  A
O321        C335   1.267       .  A
O322        C327   1.267       .  A
O323        C326   1.266       .  A
O324        C336   1.267       .  A
O325        C338   1.267       .  A
C326        O331   1.267       .  A
C326        C504   1.435       .  S
C327        C505   1.435       .  S
O329        C332   1.267       .  A
O330        C332   1.267       .  A
C332        C509   1.435       .  S
O333        C338   1.267       .  A
O334        C336   1.267       .  A
C335        O337   1.267       .  A
C335        C493   1.434       .  S
C336        C489   1.435       .  S
C338        C497   1.435       .  S
Fe339       O899   2.064   1_455  S
Fe339       O889   2.064   1_455  S
Fe339       O352   2.064       .  S
Fe339       O344   2.064       .  S
Fe339       O350   1.984       .  S
Fe340       O887   2.064   1_455  S
Fe340       O891   2.065   1_455  S
Fe340       O351   2.065       .  S
Fe340       O356   2.064       .  S
Fe340       O350   1.984       .  S
Fe341       O903   2.065   1_455  S
Fe341       O346   2.064       .  S
Fe341       O897   2.066   1_455  S
Fe341       O342   2.066       .  S
Fe341       O350   1.984       .  S
O342        C349   1.267       .  A
O343       Fe884   2.064       .  S
O343        C357   1.267       .  A
O344        C349   1.267       .  A
O345       Fe883   2.064       .  S
O345        C348   1.267       .  A
O346        C358   1.267       .  A
O347       Fe884   2.065       .  S
O347        C360   1.267       .  A
C348        O353   1.267       .  A
C348        C501   1.435       .  S
C349        C500   1.435       .  S
O351        C354   1.267       .  A
O352        C354   1.266       .  A
O353       Fe885   2.066       .  S
C354        C512   1.435       .  S
O355       Fe883   2.064       .  S
O355        C360   1.267       .  A
O356        C358   1.267       .  A
C357        O359   1.267       .  A
C357        C520   1.435       .  S
C358        C516   1.434       .  S
O359       Fe885   2.065       .  S
C360        C508   1.435       .  S
Fe361       O377   2.064       .  S
Fe361       O367   2.064       .  S
Fe361       O374   2.064       .  S
Fe361       O366   2.063       .  S
Fe361       O372   1.984       .  S
Fe362       O365   2.064       .  S
Fe362       O369   2.065       .  S
Fe362       O373   2.064       .  S
Fe362       O378   2.064       .  S
Fe362       O372   1.984       .  S
Fe363       O381   2.065       .  S
Fe363       O368   2.065       .  S
Fe363       O375   2.066       .  S
Fe363       O364   2.066       .  S
Fe363       O372   1.984       .  S
O364        C371   1.267       .  A
O365        C379   1.267       .  A
O366        C371   1.266       .  A
O367        C370   1.267       .  A
O368        C380   1.267       .  A
O369        C382   1.267       .  A
C370        O375   1.267       .  A
C370        C485   1.435       .  S
C371        C473   1.435       .  S
O373        C376   1.267       .  A
O374        C376   1.266       .  A
C376        C477   1.434       .  S
O377        C382   1.267       .  A
O378        C380   1.267       .  A
C379        O381   1.267       .  A
C379        C492   1.435       .  S
C380        C496   1.434       .  S
C382        C481   1.435       .  S
Fe383       O943   2.064       .  S
Fe383       O933   2.063       .  S
Fe383       O396   2.064       .  S
Fe383       O388   2.063       .  S
Fe383       O394   1.984       .  S
Fe384       O931   2.063       .  S
Fe384       O935   2.065       .  S
Fe384       O395   2.064       .  S
Fe384       O400   2.064       .  S
Fe384       O394   1.984       .  S
Fe385       O947   2.065       .  S
Fe385       O390   2.065       .  S
Fe385       O941   2.066       .  S
Fe385       O386   2.066       .  S
Fe385       O394   1.984       .  S
O386        C393   1.267       .  A
O387       Fe928   2.063   1_455  S
O387        C401   1.267       .  A
O388        C393   1.267       .  A
O389       Fe927   2.063   1_455  S
O389        C392   1.267       .  A
O390        C402   1.267       .  A
O391       Fe928   2.065   1_455  S
O391        C404   1.267       .  A
C392        O397   1.267       .  A
C392        C488   1.435       .  S
C393        C484   1.435       .  S
O395        C398   1.267       .  A
O396        C398   1.267       .  A
O397       Fe929   2.066   1_455  S
C398        C480   1.434       .  S
O399       Fe927   2.064   1_455  S
O399        C404   1.267       .  A
O400        C402   1.267       .  A
C401        O403   1.267       .  A
C401        C468   1.434       .  S
C402        C469   1.435       .  S
O403       Fe929   2.065   1_455  S
C404        C476   1.435       .  S
Fe405       O965   2.064       .  S
Fe405       O411   2.064       .  S
Fe405       O962   2.064       .  S
Fe405       O410   2.064       .  S
Fe405       O416   1.984       .  S
Fe406       O409   2.064       .  S
Fe406       O413   2.066       .  S
Fe406       O417   2.065       .  S
Fe406       O422   2.065       .  S
Fe406       O960   1.984   1_455  S
Fe407       O425   2.065       .  S
Fe407       O412   2.065       .  S
Fe407       O419   2.065       .  S
Fe407       O408   2.065       .  S
Fe407       O416   1.984       .  S
O408        C415   1.267       .  A
O409        C423   1.267   1_455  A
O410        C415   1.267       .  A
O411        C414   1.267       .  A
O412        C424   1.267       .  A
O413        C426   1.267       .  A
C414        O419   1.267       .  A
C414        C453   1.435       .  S
C415        C457   1.435       .  S
O416       Fe950   1.984       .  S
O417        C420   1.267       .  A
O418       Fe949   2.064   1_455  S
O418        C420   1.267       .  A
C420        C464   1.434       .  S
O421       Fe949   2.064   1_455  S
O421        C426   1.267       .  A
O422        C968   1.267   1_455  A
C423        O969   1.267       .  A
C423        C525   1.435       .  S
C424        O966   1.267       .  A
C424        C521   1.435       .  S
O425        C967   1.267       .  A
C426        C452   1.435       .  S
Fe427       O443   2.064       .  S
Fe427       O433   2.064       .  S
Fe427       O440   2.064       .  S
Fe427       O432   2.063       .  S
Fe427       O438   1.984       .  S
Fe428       O431   2.064       .  S
Fe428       O435   2.064       .  S
Fe428       O439   2.064       .  S
Fe428       O444   2.063       .  S
Fe428       O438   1.984       .  S
Fe429       O447   2.065       .  S
Fe429       O434   2.065       .  S
Fe429       O441   2.066       .  S
Fe429       O430   2.066       .  S
Fe429       O438   1.984       .  S
O430        C437   1.267       .  A
O431        C445   1.267       .  A
O432        C437   1.267       .  A
O433        C436   1.267       .  A
O434        C446   1.267       .  A
O435        C448   1.267       .  A
C436        O441   1.267       .  A
C436        C456   1.435       .  S
C437        C449   1.435       .  S
O439        C442   1.267       .  A
O440        C442   1.267       .  A
C442        C461   1.434       .  S
O443        C448   1.267       .  A
O444        C446   1.267       .  A
C445        O447   1.267       .  A
C445        C472   1.435       .  S
C446        C465   1.434       .  S
C448        C460   1.435       .  S
C449        C450   1.206       .  T
C450        C451   1.412       .  S
C451        C452   1.206       .  T
C453        C454   1.205       .  T
C454        C455   1.412       .  S
C455        C456   1.205       .  T
C457        C458   1.205       .  T
C459        C460   1.205       .  T
C461        C462   1.205       .  T
C463        C464   1.205       .  T
C465        C466   1.205       .  T
C466        C467   1.411       .  S
C467        C468   1.205       .  T
C469        C470   1.205       .  T
C470        C471   1.411       .  S
C471        C472   1.205       .  T
C473        C474   1.205       .  T
C474        C475   1.412       .  S
C475        C476   1.205       .  T
C477        C478   1.205       .  T
C478        C479   1.411       .  S
C479        C480   1.205       .  T
C481        C482   1.205       .  T
C483        C484   1.205       .  T
C485        C486   1.206       .  T
C486        C487   1.412       .  S
C489        C490   1.205       .  T
C491        C492   1.205       .  T
C493        C494   1.205       .  T
C494        C495   1.411       .  S
C495        C496   1.205       .  T
C497        C498   1.206       .  T
C498        C499   1.412       .  S
C499        C500   1.206       .  T
C501        C502   1.206       .  T
C502        C503   1.412       .  S
C503        C504   1.206       .  T
C505        C506   1.206       .  T
C507        C508   1.206       .  T
C509        C510   1.205       .  T
C511        C512   1.205       .  T
C513        C514   1.205       .  T
C514        C515   1.411       .  S
C515        C516   1.205       .  T
C517        C518   1.206       .  T
C518        C519   1.412       .  S
C519        C520   1.206       .  T
C521        C522   1.205       .  T
C523        C524   1.205       .  T
C525       C1070   1.205       .  T
C526       C1069   1.205       .  T
C526        C527   1.411   1_554  S
C527        C528   1.205       .  T
C529        C530   1.206       .  T
C530        C531   1.412       .  S
C531        C532   1.206       .  T
C533        C534   1.205       .  T
C534        C535   1.412       .  S
C535        C536   1.205       .  T
C537        C538   1.206       .  T
C539        C540   1.206       .  T
C541        C542   1.206       .  T
C543        C544   1.206       .  T
Fe545       O551   2.064       .  S
Fe545       O550   2.064       .  S
Fe546       O549   2.064       .  S
Fe546       O553   2.065       .  S
Fe546       O557   2.065       .  S
Fe546       O562   2.065       .  S
Fe546       O556   1.984   1_655  S
Fe547       O565   2.065       .  S
Fe547       O552   2.065       .  S
Fe547       O559   2.066       .  S
Fe547       O548   2.066       .  S
O548        C555   1.267       .  A
O549        C563   1.267   1_655  A
O550        C555   1.267       .  A
O551        C554   1.267       .  A
O553        C566   1.267       .  A
C554        O559   1.267       .  A
C554        C816   1.435       .  S
C555        C801   1.435       .  S
O557        C560   1.267       .  A
O558        C560   1.267       .  A
C560        C805   1.435       .  S
O561        C566   1.267       .  A
O562        C564   1.267   1_655  A
C563        C796   1.435       .  S
C564        C800   1.435       .  S
C566        C809   1.435       .  S
Fe567       O583   2.064       .  S
Fe567       O573   2.064       .  S
Fe567       O580   2.064       .  S
Fe567       O572   2.064       .  S
Fe567       O578   1.984       .  S
Fe568       O571   2.064       .  S
Fe568       O575   2.066       .  S
Fe568       O579   2.065       .  S
Fe568       O584   2.065       .  S
Fe568       O578   1.984       .  S
Fe569       O587   2.065       .  S
Fe569       O574   2.065       .  S
Fe569       O581   2.066       .  S
Fe569       O570   2.066       .  S
Fe569       O578   1.984       .  S
O570        C577   1.267       .  A
O571        C585   1.267       .  A
O572        C577   1.267       .  A
O573        C576   1.267       .  A
O574        C586   1.267       .  A
O575        C588   1.267       .  A
C576        O581   1.267       .  A
C576        C813   1.435       .  S
C577        C812   1.435       .  S
O579        C582   1.267       .  A
O580        C582   1.267       .  A
C582        C808   1.435       .  S
O583        C588   1.267       .  A
O584        C586   1.267       .  A
C585        O587   1.267       .  A
C585        C785   1.434       .  S
C586        C789   1.435       .  S
C588        C804   1.435       .  S
Fe589       O605   2.065       .  S
Fe589       O595   2.064       .  S
Fe589       O602   2.064       .  S
Fe589       O594   2.064       .  S
Fe589       O600   1.984       .  S
Fe590       O593   2.064       .  S
Fe590       O597   2.065       .  S
Fe590       O601   2.065       .  S
Fe590       O606   2.064       .  S
Fe590       O600   1.984       .  S
Fe591       O609   2.065       .  S
Fe591       O596   2.065       .  S
Fe591       O603   2.066       .  S
Fe591       O592   2.066       .  S
Fe591       O600   1.984       .  S
O592        C599   1.267       .  A
O593        C607   1.267       .  A
O594        C599   1.267       .  A
O595        C598   1.266       .  A
O596        C608   1.267       .  A
O597        C610   1.267       .  A
C598        O603   1.267       .  A
C598        C776   1.435       .  S
C599        C777   1.435       .  S
O601        C604   1.267       .  A
O602        C604   1.267       .  A
C604        C781   1.435       .  S
O605        C610   1.267       .  A
O606        C608   1.267       .  A
C607        O609   1.267       .  A
C607        C765   1.434       .  S
C608        C761   1.435       .  S
C610        C769   1.435       .  S
Fe611       O624   2.064       .  S
Fe611       O616   2.064       .  S
Fe611       O622   1.984       .  S
Fe612       O623   2.065       .  S
Fe612       O628   2.064       .  S
Fe612       O622   1.984       .  S
Fe613       O618   2.064       .  S
Fe613       O614   2.066       .  S
Fe613       O622   1.984       .  S
O614        C621   1.267       .  A
O615        C629   1.267       .  A
O616        C621   1.267       .  A
O617        C620   1.267       .  A
O618        C630   1.267       .  A
O619        C632   1.267       .  A
C620        O625   1.267       .  A
C620        C773   1.435       .  S
C621        C772   1.435       .  S
O623        C626   1.267       .  A
O624        C626   1.266       .  A
C626        C784   1.435       .  S
O627        C632   1.267       .  A
O628        C630   1.267       .  A
C629        O631   1.267       .  A
C629        C792   1.435       .  S
C630        C788   1.434       .  S
C632        C780   1.435       .  S
Fe633       O649   2.064       .  S
Fe633       O639   2.064       .  S
Fe633       O646   2.064       .  S
Fe633       O638   2.063       .  S
Fe633       O644   1.984       .  S
Fe634       O637   2.064       .  S
Fe634       O641   2.065       .  S
Fe634       O645   2.064       .  S
Fe634       O650   2.064       .  S
Fe634       O644   1.984       .  S
Fe635       O653   2.065       .  S
Fe635       O640   2.065       .  S
Fe635       O647   2.066       .  S
Fe635       O636   2.066       .  S
Fe635       O644   1.984       .  S
O636        C643   1.267       .  A
O637        C651   1.267       .  A
O638        C643   1.266       .  A
O639        C642   1.267       .  A
O640        C652   1.267       .  A
O641        C654   1.267       .  A
C642        O647   1.267       .  A
C642        C757   1.435       .  S
C643        C745   1.435       .  S
O645        C648   1.267       .  A
O646        C648   1.266       .  A
C648        C749   1.434       .  S
O649        C654   1.267       .  A
O650        C652   1.267       .  A
C651        O653   1.267       .  A
C651        C764   1.435       .  S
C652        C768   1.434       .  S
C654        C753   1.435       .  S
Fe655       O668   2.064       .  S
Fe655       O660   2.063       .  S
Fe655       O666   1.984       .  S
Fe656       O667   2.064       .  S
Fe656       O672   2.064       .  S
Fe656       O666   1.984       .  S
Fe657       O662   2.065       .  S
Fe657       O658   2.066       .  S
Fe657       O666   1.984       .  S
O658        C665   1.267       .  A
O659        C673   1.267       .  A
O660        C665   1.267       .  A
O661        C664   1.267       .  A
O662        C674   1.267       .  A
O663        C676   1.267       .  A
C664        O669   1.267       .  A
C664        C760   1.435       .  S
C665        C756   1.435       .  S
O667        C670   1.267       .  A
O668        C670   1.267       .  A
C670        C752   1.434       .  S
O671        C676   1.267       .  A
O672        C674   1.267       .  A
C673        O675   1.267       .  A
C673        C740   1.434       .  S
C674        C741   1.435       .  S
C676        C748   1.435       .  S
Fe677       O683   2.064       .  S
Fe677       O682   2.064       .  S
Fe677       O688   1.984       .  S
Fe678       O681   2.064       .  S
Fe678       O685   2.066       .  S
Fe678       O689   2.065       .  S
Fe678       O694   2.065       .  S
Fe679       O697   2.065       .  S
Fe679       O684   2.065       .  S
Fe679       O691   2.065       .  S
Fe679       O680   2.065       .  S
Fe679       O688   1.984       .  S
O680        C687   1.267       .  A
O681        C695   1.267       .  A
O682        C687   1.267       .  A
O683        C686   1.267       .  A
O684        C696   1.267       .  A
O685        C698   1.267       .  A
C686        O691   1.267       .  A
C686        C725   1.435       .  S
C687        C729   1.435       .  S
O689        C692   1.267       .  A
O690        C692   1.267       .  A
C692        C736   1.434       .  S
O693        C698   1.267       .  A
C695        C797   1.435       .  S
C696        C793   1.435       .  S
C698        C724   1.435       .  S
Fe699       O715   2.064       .  S
Fe699       O705   2.064       .  S
Fe699       O712   2.064       .  S
Fe699       O704   2.063       .  S
Fe699       O710   1.984       .  S
Fe700       O703   2.064       .  S
Fe700       O707   2.064       .  S
Fe700       O711   2.064       .  S
Fe700       O716   2.063       .  S
Fe700       O710   1.984       .  S
Fe701       O719   2.065       .  S
Fe701       O706   2.065       .  S
Fe701       O713   2.066       .  S
Fe701       O702   2.066       .  S
Fe701       O710   1.984       .  S
O702        C709   1.267       .  A
O703        C717   1.267       .  A
O704        C709   1.267       .  A
O705        C708   1.267       .  A
O706        C718   1.267       .  A
O707        C720   1.267       .  A
C708        O713   1.267       .  A
C708        C728   1.435       .  S
C709        C721   1.435       .  S
O711        C714   1.267       .  A
O712        C714   1.267       .  A
C714        C733   1.434       .  S
O715        C720   1.267       .  A
O716        C718   1.267       .  A
C717        O719   1.267       .  A
C717        C744   1.435       .  S
C718        C737   1.434       .  S
C720        C732   1.435       .  S
C721        C722   1.206       .  T
C722        C723   1.412       .  S
C723        C724   1.206       .  T
C725        C726   1.205       .  T
C726        C727   1.412       .  S
C727        C728   1.205       .  T
C729        C730   1.205       .  T
C730       C1003   1.411   1_545  S
C731        C732   1.205       .  T
C731       C1002   1.411       .  S
C733        C734   1.205       .  T
C734       C1007   1.411       .  S
C735        C736   1.205       .  T
C735       C1006   1.411   1_545  S
C737        C738   1.205       .  T
C738        C739   1.411       .  S
C739        C740   1.205       .  T
C741        C742   1.205       .  T
C742        C743   1.411       .  S
C743        C744   1.205       .  T
C745        C746   1.205       .  T
C746        C747   1.412       .  S
C747        C748   1.205       .  T
C749        C750   1.205       .  T
C750        C751   1.411       .  S
C751        C752   1.205       .  T
C753        C754   1.205       .  T
C754       C1027   1.411   1_545  S
C755        C756   1.205       .  T
C755       C1026   1.411       .  S
C757        C758   1.206       .  T
C758        C759   1.412   1_545  S
C759       C1032   1.206       .  T
C760       C1031   1.206       .  T
C761        C762   1.205       .  T
C762       C1035   1.411       .  S
C763        C764   1.205       .  T
C763       C1034   1.411   1_545  S
C765        C766   1.205       .  T
C766        C767   1.411       .  S
C767        C768   1.205       .  T
C769        C770   1.206       .  T
C770        C771   1.412       .  S
C771        C772   1.206       .  T
C773        C774   1.206       .  T
C774        C775   1.412       .  S
C775        C776   1.206       .  T
C777        C778   1.206       .  T
C778       C1051   1.412       .  S
C779        C780   1.206       .  T
C779       C1050   1.412   1_545  S
C781        C782   1.205       .  T
C782       C1055   1.411       .  S
C783        C784   1.205       .  T
C783       C1054   1.411   1_545  S
C785        C786   1.205       .  T
C786        C787   1.411       .  S
C787        C788   1.205       .  T
C789        C790   1.206       .  T
C790        C791   1.412       .  S
C791        C792   1.206       .  T
C793        C794   1.205       .  T
C794       C1067   1.411   1_644  S
C795        C796   1.205       .  T
C795       C1066   1.411   1_456  S
C798        C799   1.411   1_654  S
C799        C800   1.205       .  T
C801        C802   1.206       .  T
C802        C803   1.412       .  S
C803        C804   1.206       .  T
C805        C806   1.205       .  T
C806        C807   1.412       .  S
C807        C808   1.205       .  T
C809        C810   1.206       .  T
C810       C1083   1.412       .  S
C811        C812   1.206       .  T
C811       C1082   1.412   1_545  S
C813        C814   1.206       .  T
C814       C1087   1.412   1_545  S
C815        C816   1.206       .  T
C815       C1086   1.412       .  S
Fe817       O823   2.064       .  S
Fe817       O822   2.064       .  S
Fe818       O821   2.064       .  S
Fe818       O825   2.065       .  S
Fe818       O829   2.065       .  S
Fe818       O834   2.065       .  S
Fe818       O828   1.984   1_655  S
Fe819       O837   2.065       .  S
Fe819       O824   2.065       .  S
Fe819       O831   2.066       .  S
Fe819       O820   2.066       .  S
O820        C827   1.267       .  A
O821        C835   1.267   1_655  A
O822        C827   1.267       .  A
O823        C826   1.267       .  A
O825        C838   1.267       .  A
C826        O831   1.267       .  A
C826       C1088   1.435       .  S
C827       C1073   1.435       .  S
O829        C832   1.267       .  A
O830        C832   1.267       .  A
C832       C1077   1.435       .  S
O833        C838   1.267       .  A
O834        C836   1.267   1_655  A
C835       C1068   1.435       .  S
C836       C1072   1.435       .  S
C838       C1081   1.435       .  S
Fe839       O855   2.064       .  S
Fe839       O845   2.064       .  S
Fe839       O852   2.064       .  S
Fe839       O844   2.064       .  S
Fe839       O850   1.984       .  S
Fe840       O843   2.064       .  S
Fe840       O847   2.066       .  S
Fe840       O851   2.065       .  S
Fe840       O856   2.065       .  S
Fe840       O850   1.984       .  S
Fe841       O859   2.065       .  S
Fe841       O846   2.065       .  S
Fe841       O853   2.066       .  S
Fe841       O842   2.066       .  S
Fe841       O850   1.984       .  S
O842        C849   1.267       .  A
O843        C857   1.267       .  A
O844        C849   1.267       .  A
O845        C848   1.267       .  A
O846        C858   1.267       .  A
O847        C860   1.267       .  A
C848        O853   1.267       .  A
C848       C1085   1.435       .  S
C849       C1084   1.435       .  S
O851        C854   1.267       .  A
O852        C854   1.267       .  A
C854       C1080   1.435       .  S
O855        C860   1.267       .  A
O856        C858   1.267       .  A
C857        O859   1.267       .  A
C857       C1057   1.434       .  S
C858       C1061   1.435       .  S
C860       C1076   1.435       .  S
Fe861       O877   2.065       .  S
Fe861       O867   2.064       .  S
Fe861       O874   2.064       .  S
Fe861       O866   2.064       .  S
Fe861       O872   1.984       .  S
Fe862       O865   2.064       .  S
Fe862       O869   2.065       .  S
Fe862       O873   2.065       .  S
Fe862       O878   2.064       .  S
Fe862       O872   1.984       .  S
Fe863       O881   2.065       .  S
Fe863       O868   2.065       .  S
Fe863       O875   2.066       .  S
Fe863       O864   2.066       .  S
Fe863       O872   1.984       .  S
O864        C871   1.267       .  A
O865        C879   1.267       .  A
O866        C871   1.267       .  A
O867        C870   1.266       .  A
O868        C880   1.267       .  A
O869        C882   1.267       .  A
C870        O875   1.267       .  A
C870       C1048   1.435       .  S
C871       C1049   1.435       .  S
O873        C876   1.267       .  A
O874        C876   1.267       .  A
C876       C1053   1.435       .  S
O877        C882   1.267       .  A
O878        C880   1.267       .  A
C879        O881   1.267       .  A
C879       C1037   1.434       .  S
C880       C1033   1.435       .  S
C882       C1041   1.435       .  S
Fe883       O896   2.064       .  S
Fe883       O888   2.064       .  S
Fe883       O894   1.984       .  S
Fe884       O895   2.065       .  S
Fe884       O900   2.064       .  S
Fe884       O894   1.984       .  S
Fe885       O890   2.064       .  S
Fe885       O886   2.066       .  S
Fe885       O894   1.984       .  S
O886        C893   1.267       .  A
O887        C901   1.267       .  A
O888        C893   1.267       .  A
O889        C892   1.267       .  A
O890        C902   1.267       .  A
O891        C904   1.267       .  A
C892        O897   1.267       .  A
C892       C1045   1.435       .  S
C893       C1044   1.435       .  S
O895        C898   1.267       .  A
O896        C898   1.266       .  A
C898       C1056   1.435       .  S
O899        C904   1.267       .  A
O900        C902   1.267       .  A
C901        O903   1.267       .  A
C901       C1064   1.435       .  S
C902       C1060   1.434       .  S
C904       C1052   1.435       .  S
Fe905       O921   2.064       .  S
Fe905       O911   2.064       .  S
Fe905       O918   2.064       .  S
Fe905       O910   2.063       .  S
Fe905       O916   1.984       .  S
Fe906       O909   2.064       .  S
Fe906       O913   2.065       .  S
Fe906       O917   2.064       .  S
Fe906       O922   2.064       .  S
Fe906       O916   1.984       .  S
Fe907       O925   2.065       .  S
Fe907       O912   2.065       .  S
Fe907       O919   2.066       .  S
Fe907       O908   2.066       .  S
Fe907       O916   1.984       .  S
O908        C915   1.267       .  A
O909        C923   1.267       .  A
O910        C915   1.266       .  A
O911        C914   1.267       .  A
O912        C924   1.267       .  A
O913        C926   1.267       .  A
C914        O919   1.267       .  A
C914       C1029   1.435       .  S
C915       C1017   1.435       .  S
O917        C920   1.267       .  A
O918        C920   1.266       .  A
C920       C1021   1.434       .  S
O921        C926   1.267       .  A
O922        C924   1.267       .  A
C923        O925   1.267       .  A
C923       C1036   1.435       .  S
C924       C1040   1.434       .  S
C926       C1025   1.435       .  S
Fe927       O940   2.064       .  S
Fe927       O932   2.063       .  S
Fe927       O938   1.984       .  S
Fe928       O939   2.064       .  S
Fe928       O944   2.064       .  S
Fe928       O938   1.984       .  S
Fe929       O934   2.065       .  S
Fe929       O930   2.066       .  S
Fe929       O938   1.984       .  S
O930        C937   1.267       .  A
O931        C945   1.267       .  A
O932        C937   1.267       .  A
O933        C936   1.267       .  A
O934        C946   1.267       .  A
O935        C948   1.267       .  A
C936        O941   1.267       .  A
C936       C1032   1.435       .  S
C937       C1028   1.435       .  S
O939        C942   1.267       .  A
O940        C942   1.267       .  A
C942       C1024   1.434       .  S
O943        C948   1.267       .  A
O944        C946   1.267       .  A
C945        O947   1.267       .  A
C945       C1012   1.434       .  S
C946       C1013   1.435       .  S
C948       C1020   1.435       .  S
Fe949       O955   2.064       .  S
Fe949       O954   2.064       .  S
Fe949       O960   1.984       .  S
Fe950       O953   2.064       .  S
Fe950       O957   2.066       .  S
Fe950       O961   2.065       .  S
Fe950       O966   2.065       .  S
Fe951       O969   2.065       .  S
Fe951       O956   2.065       .  S
Fe951       O963   2.065       .  S
Fe951       O952   2.065       .  S
Fe951       O960   1.984       .  S
O952        C959   1.267       .  A
O953        C967   1.267       .  A
O954        C959   1.267       .  A
O955        C958   1.267       .  A
O956        C968   1.267       .  A
O957        C970   1.267       .  A
C958        O963   1.267       .  A
C958        C997   1.435       .  S
C959       C1001   1.435       .  S
O961        C964   1.267       .  A
O962        C964   1.267       .  A
C964       C1008   1.435       .  S
O965        C970   1.267       .  A
C967       C1069   1.435       .  S
C968       C1065   1.435       .  S
C970        C996   1.435       .  S
Fe971       O987   2.064       .  S
Fe971       O977   2.064       .  S
Fe971       O984   2.064       .  S
Fe971       O976   2.063       .  S
Fe971       O982   1.984       .  S
Fe972       O975   2.064       .  S
Fe972       O979   2.064       .  S
Fe972       O983   2.064       .  S
Fe972       O988   2.063       .  S
Fe972       O982   1.984       .  S
Fe973       O991   2.065       .  S
Fe973       O978   2.065       .  S
Fe973       O985   2.066       .  S
Fe973       O974   2.066       .  S
Fe973       O982   1.984       .  S
O974        C981   1.267       .  A
O975        C989   1.267       .  A
O976        C981   1.267       .  A
O977        C980   1.267       .  A
O978        C990   1.267       .  A
O979        C992   1.267       .  A
C980        O985   1.267       .  A
C980       C1000   1.435       .  S
C981        C993   1.435       .  S
O983        C986   1.267       .  A
O984        C986   1.267       .  A
C986       C1005   1.434       .  S
O987        C992   1.267       .  A
O988        C990   1.267       .  A
C989        O991   1.267       .  A
C989       C1016   1.435       .  S
C990       C1009   1.434       .  S
C992       C1004   1.435       .  S
C993        C994   1.206       .  T
C994        C995   1.412       .  S
C995        C996   1.206       .  T
C997        C998   1.205       .  T
C998        C999   1.412       .  S
C999       C1000   1.205       .  T
C1001      C1002   1.205       .  T
C1003      C1004   1.205       .  T
C1005      C1006   1.205       .  T
C1007      C1008   1.205       .  T
C1009      C1010   1.205       .  T
C1010      C1011   1.411       .  S
C1011      C1012   1.205       .  T
C1013      C1014   1.205       .  T
C1014      C1015   1.411       .  S
C1015      C1016   1.205       .  T
C1017      C1018   1.205       .  T
C1018      C1019   1.412       .  S
C1019      C1020   1.205       .  T
C1021      C1022   1.205       .  T
C1022      C1023   1.411       .  S
C1023      C1024   1.205       .  T
C1025      C1026   1.205       .  T
C1027      C1028   1.205       .  T
C1029      C1030   1.206       .  T
C1030      C1031   1.412       .  S
C1033      C1034   1.205       .  T
C1035      C1036   1.205       .  T
C1037      C1038   1.205       .  T
C1038      C1039   1.411       .  S
C1039      C1040   1.205       .  T
C1041      C1042   1.206       .  T
C1042      C1043   1.412       .  S
C1043      C1044   1.206       .  T
C1045      C1046   1.206       .  T
C1046      C1047   1.412       .  S
C1047      C1048   1.206       .  T
C1049      C1050   1.206       .  T
C1051      C1052   1.206       .  T
C1053      C1054   1.205       .  T
C1055      C1056   1.205       .  T
C1057      C1058   1.205       .  T
C1058      C1059   1.411       .  S
C1059      C1060   1.205       .  T
C1061      C1062   1.206       .  T
C1062      C1063   1.412       .  S
C1063      C1064   1.206       .  T
C1065      C1066   1.205       .  T
C1067      C1068   1.205       .  T
C1070      C1071   1.411   1_654  S
C1071      C1072   1.205       .  T
C1073      C1074   1.206       .  T
C1074      C1075   1.412       .  S
C1075      C1076   1.206       .  T
C1077      C1078   1.205       .  T
C1078      C1079   1.412       .  S
C1079      C1080   1.205       .  T
C1081      C1082   1.206       .  T
C1083      C1084   1.206       .  T
C1085      C1086   1.206       .  T
C1087      C1088   1.206       .  T
