geometry optimzed in LAMMPS
_audit_creation_date              2020-11-30 
_audit_creation_method            'lammps2cif' 
_symmetry_space_group_name_H-M    'P1' 
_symmetry_Int_Tables_number       1 
_symmetry_cell_setting            triclinic 
loop_ 
_symmetry_equiv_pos_as_xyz 
  x,y,z 
_cell_length_a                    61.40924463 
_cell_length_b                    61.409530701630885 
_cell_length_c                    61.44041299199581 
_cell_angle_alpha                 90.03375517332006 
_cell_angle_beta                  90.03314216090126 
_cell_angle_gamma                 90.02934010571092 
loop_ 
_atom_site_label 
_atom_site_type_symbol 
_atom_site_fract_x 
_atom_site_fract_y 
_atom_site_fract_z 
_atom_site_charge 
O1          O  0.08328817  0.13094502  0.35691226    -0.73200
O2          O  0.14865573  0.13425018  0.35633989    -0.74200
O3          O  0.11766986  0.10017949  0.35782209    -0.62800
O4          O  0.11445098  0.16520581  0.35498053    -0.71200
O5          O  0.11404340  0.16703106  0.39105814    -0.70700
O6          O  0.11830255  0.10163946  0.39389964    -0.62000
O7          O  0.14860141  0.13637050  0.39234283    -0.74500
O8          O  0.08352130  0.13251742  0.39301379    -0.73300
Cu9        Cu  0.11596698  0.13261652  0.35526501     1.04600
Cu10       Cu  0.11609757  0.13445083  0.39384499     1.04300
C11         C  0.07312820  0.13104164  0.37507149     0.93000
C12         C  0.15898384  0.13584697  0.37433552     0.92200
C13         C  0.11895572  0.09062771  0.37622716     0.84300
C14         C  0.11368074  0.17639780  0.37248466     0.90600
O15         O  0.12667242  0.91654549  0.35850021    -0.73200
O16         O  0.12867188  0.85106589  0.35662082    -0.74200
O17         O  0.09504303  0.88257847  0.35576245    -0.62800
O18         O  0.16021415  0.88486362  0.35917310    -0.71200
O19         O  0.15863329  0.88307641  0.39520463    -0.70700
O20         O  0.09324174  0.88198816  0.39179753    -0.62000
O21         O  0.12654529  0.84989973  0.39255696    -0.74500
O22         O  0.12541774  0.91533218  0.39449008    -0.73300
Cu23       Cu  0.12770702  0.88382386  0.35626974     1.04600
Cu24       Cu  0.12588123  0.88256722  0.39476439     1.04300
C25         C  0.12578800  0.92634483  0.37685595     0.93000
C26         C  0.12778722  0.84007355  0.37424756     0.92200
C27         C  0.08381383  0.88184476  0.37324497     0.84300
C28         C  0.16972825  0.88430103  0.37765793     0.90600
O29         O  0.86584111  0.15164553  0.35956174    -0.73200
O30         O  0.86690777  0.08641441  0.35788086    -0.74200
O31         O  0.83368384  0.11831056  0.35843359    -0.62800
O32         O  0.89908655  0.11969759  0.35894216    -0.71200
O33         O  0.89895214  0.11927038  0.39497684    -0.70700
O34         O  0.83356475  0.11700045  0.39447550    -0.62000
O35         O  0.86732028  0.08547650  0.39394614    -0.74500
O36         O  0.86533175  0.15069794  0.39553784    -0.73300
Cu37       Cu  0.86638966  0.11905405  0.35745415     1.04600
Cu38       Cu  0.86627297  0.11808162  0.39598367     1.04300
C39         C  0.86555844  0.16157812  0.37785158     0.93000
C40         C  0.86717075  0.07561391  0.37562919     0.92200
C41         C  0.82326521  0.11706082  0.37639306     0.84300
C42         C  0.90941346  0.11977827  0.37702027     0.90600
O43         O  0.90847732  0.86940303  0.35178628    -0.73200
O44         O  0.84333880  0.86846975  0.35630044    -0.74200
O45         O  0.87543389  0.90169303  0.35420411    -0.62800
O46         O  0.87631413  0.83617642  0.35423271    -0.71200
O47         O  0.87919372  0.83644503  0.39010998    -0.70700
O48         O  0.87729942  0.90156280  0.39026822    -0.62000
O49         O  0.84551282  0.86821714  0.39232026    -0.74500
O50         O  0.91090477  0.86978683  0.38771602    -0.73300
Cu51       Cu  0.87580568  0.86894053  0.35287961     1.04600
Cu52       Cu  0.87832438  0.86900930  0.39134628     1.04300
C53         C  0.92007802  0.86976995  0.36902013     0.93000
C54         C  0.83408971  0.86803023  0.37490973     0.92200
C55         C  0.87614333  0.91194472  0.37230802     0.84300
C56         C  0.87814102  0.82588663  0.37221483     0.90600
O57         O  0.10434493  0.35129373  0.37169864    -0.73200
O58         O  0.10671034  0.41651804  0.37131735    -0.74200
O59         O  0.10640400  0.38358395  0.33893018    -0.62800
O60         O  0.10463617  0.38433019  0.40418848    -0.71200
O61         O  0.14070429  0.38229562  0.40514243    -0.70700
O62         O  0.14249769  0.38282645  0.33986100    -0.62000
O63         O  0.14278638  0.41521655  0.37295875    -0.74500
O64         O  0.14034023  0.34994889  0.37215835    -0.73300
Cu65       Cu  0.10427131  0.38397939  0.37150518     1.04600
Cu66       Cu  0.14284231  0.38253561  0.37256523     1.04300
C67         C  0.12196822  0.34021726  0.37184723     0.93000
C68         C  0.12511348  0.42617039  0.37235574     0.92200
C69         C  0.12470056  0.38293424  0.32906850     0.84300
C70         C  0.12240226  0.38328250  0.41496603     0.90600
O71         O  0.10552611  0.38261450  0.58966215    -0.73200
O72         O  0.10712884  0.37856723  0.65476524    -0.74200
O73         O  0.10606351  0.41308962  0.62412899    -0.62800
O74         O  0.10666257  0.34780788  0.62028122    -0.71200
O75         O  0.14279979  0.34819050  0.62025248    -0.70700
O76         O  0.14214923  0.41352824  0.62289925    -0.62000
O77         O  0.14318037  0.37931104  0.65418096    -0.74500
O78         O  0.14157130  0.38239718  0.58885699    -0.73300
Cu79       Cu  0.10510074  0.38048072  0.62222825     1.04600
Cu80       Cu  0.14368640  0.38086034  0.62149389     1.04300
C81         C  0.12331485  0.38353402  0.57892152     0.93000
C82         C  0.12533237  0.37812870  0.66482411     0.92200
C83         C  0.12399935  0.42363871  0.62406181     0.84300
C84         C  0.12484145  0.33768431  0.62011746     0.90600
O85         O  0.11256208  0.60050976  0.36698329    -0.73200
O86         O  0.11410207  0.66576641  0.36936441    -0.74200
O87         O  0.11418123  0.63428960  0.33531079    -0.62800
O88         O  0.11241718  0.63179557  0.40068266    -0.71200
O89         O  0.14855108  0.63172115  0.40156850    -0.70700
O90         O  0.15025547  0.63304511  0.33601298    -0.62000
O91         O  0.15022356  0.66509949  0.36952846    -0.74500
O92         O  0.14868922  0.59968431  0.36796356    -0.73300
Cu93       Cu  0.11207592  0.63313536  0.36802348     1.04600
Cu94       Cu  0.15070216  0.63235656  0.36880214     1.04300
C95         C  0.13038580  0.58980144  0.36718143     0.93000
C96         C  0.13236029  0.67576145  0.36972762     0.92200
C97         C  0.13242563  0.63404001  0.32529800     0.84300
C98         C  0.13021762  0.63149707  0.41144009     0.90600
O99         O  0.10808417  0.63228207  0.65141196    -0.73200
O100        O  0.10776277  0.63054981  0.58605000    -0.74200
O101        O  0.10638720  0.59873693  0.61970415    -0.62800
O102        O  0.10957416  0.66419467  0.61790764    -0.71200
O103        O  0.14567182  0.66248734  0.61841466    -0.70700
O104        O  0.14246860  0.59733201  0.61949566    -0.62000
O105        O  0.14379524  0.62935739  0.58597798    -0.74500
O106        O  0.14414838  0.63049730  0.65145541    -0.73300
Cu107      Cu  0.10669217  0.63151248  0.61872739     1.04600
Cu108      Cu  0.14526445  0.62985101  0.61876414     1.04300
C109        C  0.12610916  0.63144458  0.66178327     0.93000
C110        C  0.12572763  0.62987558  0.57560384     0.92200
C111        C  0.12403440  0.58772227  0.62032817     0.84300
C112        C  0.12813162  0.67364107  0.61833053     0.90600
O113        O  0.61388106  0.10311867  0.34543654    -0.73200
O114        O  0.61608277  0.10342136  0.41063655    -0.74200
O115        O  0.58239727  0.10514498  0.37923656    -0.62800
O116        O  0.64779499  0.10156484  0.37713183    -0.71200
O117        O  0.64945503  0.13761521  0.37691873    -0.70700
O118        O  0.58428826  0.14120892  0.37872007    -0.62000
O119        O  0.61786758  0.13942029  0.41038860    -0.74500
O120        O  0.61586979  0.13916624  0.34506131    -0.73300
Cu121      Cu  0.61498180  0.10205477  0.37806519     1.04600
Cu122      Cu  0.61695432  0.14059648  0.37772607     1.04300
C123        C  0.61428697  0.12105271  0.33492011     0.93000
C124        C  0.61713902  0.12149360  0.42090380     0.92200
C125        C  0.57303622  0.12373092  0.37959729     0.84300
C126        C  0.65898421  0.11913534  0.37720798     0.90600
O127        O  0.58946443  0.10511299  0.62929273    -0.73200
O128        O  0.65474846  0.10218155  0.62744335    -0.74200
O129        O  0.62296417  0.10429572  0.66082615    -0.62800
O130        O  0.62086697  0.10284189  0.59562872    -0.71200
O131        O  0.62256628  0.13894004  0.59477630    -0.70700
O132        O  0.62502928  0.14038090  0.66006125    -0.62000
O133        O  0.65625274  0.13827192  0.62629831    -0.74500
O134        O  0.59117286  0.14117558  0.62866035    -0.73300
Cu135      Cu  0.62198745  0.10234002  0.62828600     1.04600
Cu136      Cu  0.62381759  0.14094438  0.62738766     1.04300
C137        C  0.58000596  0.12364576  0.62956375     0.93000
C138        C  0.66580331  0.11981962  0.62693496     0.92200
C139        C  0.62409498  0.12255145  0.67073162     0.84300
C140        C  0.62117668  0.12066170  0.58491779     0.90600
O141        O  0.36673221  0.14974430  0.40794734    -0.73200
O142        O  0.36538954  0.14594237  0.34277859    -0.74200
O143        O  0.33353942  0.14831049  0.37602454    -0.62800
O144        O  0.39880669  0.14722764  0.37502834    -0.71200
O145        O  0.39828328  0.11119888  0.37718333    -0.70700
O146        O  0.33290184  0.11221006  0.37742871    -0.62000
O147        O  0.36526644  0.10986747  0.34447898    -0.74500
O148        O  0.36591533  0.11372625  0.40988337    -0.73300
Cu149      Cu  0.36616446  0.14903670  0.37530960     1.04600
Cu150      Cu  0.36558974  0.11047719  0.37727513     1.04300
C151        C  0.36630934  0.13231173  0.41927350     0.93000
C152        C  0.36479780  0.12742187  0.33330825     0.92200
C153        C  0.32291392  0.13045741  0.37710041     0.84300
C154        C  0.40888801  0.12910074  0.37660395     0.90600
O155        O  0.40642719  0.14832880  0.62581245    -0.73200
O156        O  0.34101414  0.14957466  0.62798748    -0.74200
O157        O  0.37500753  0.14713621  0.65951178    -0.62800
O158        O  0.37277315  0.15088774  0.59433257    -0.71200
O159        O  0.37277271  0.11480208  0.59237838    -0.70700
O160        O  0.37332283  0.11123593  0.65782175    -0.62000
O161        O  0.34020879  0.11360548  0.62550695    -0.74500
O162        O  0.40550151  0.11221304  0.62483303    -0.73300
Cu163      Cu  0.37378112  0.15022488  0.62698051     1.04600
Cu164      Cu  0.37287416  0.11170844  0.62504145     1.04300
C165        C  0.41626508  0.13001595  0.62509173     0.93000
C166        C  0.33022130  0.13178909  0.62714543     0.92200
C167        C  0.37456753  0.12870745  0.66911114     0.84300
C168        C  0.37299239  0.13341486  0.58305247     0.90600
O169        O  0.85670537  0.58622903  0.37911725    -0.73200
O170        O  0.85745238  0.65151669  0.37753189    -0.74200
O171        O  0.85578872  0.61827651  0.34547682    -0.62800
O172        O  0.85831840  0.61990115  0.41077352    -0.71200
O173        O  0.89442987  0.61886972  0.40957572    -0.70700
O174        O  0.89191134  0.61760261  0.34425154    -0.62000
O175        O  0.89354948  0.65097502  0.37650751    -0.74500
O176        O  0.89271143  0.58569874  0.37750190    -0.73300
Cu177      Cu  0.85580674  0.61895288  0.37822389     1.04600
Cu178      Cu  0.89440447  0.61826450  0.37686446     1.04300
C179        C  0.87459994  0.57558427  0.37890467     0.93000
C180        C  0.87566321  0.66157747  0.37728175     0.92200
C181        C  0.87348895  0.61767285  0.33457140     0.84300
C182        C  0.87673731  0.61995141  0.42045247     0.90600
O183        O  0.89223934  0.62297005  0.66065826    -0.73200
O184        O  0.89377932  0.62174513  0.59520584    -0.74200
O185        O  0.89509096  0.65497843  0.62755293    -0.62800
O186        O  0.89118437  0.58992561  0.62863870    -0.71200
O187        O  0.85509396  0.59186892  0.62722070    -0.70700
O188        O  0.85901028  0.65708300  0.62631377    -0.62000
O189        O  0.85775929  0.62390719  0.59434608    -0.74500
O190        O  0.85620175  0.62490858  0.65955513    -0.73300
Cu191      Cu  0.89433966  0.62236172  0.62803616     1.04600
Cu192      Cu  0.85576521  0.62455198  0.62685563     1.04300
C193        C  0.87389499  0.62379271  0.67044979     0.93000
C194        C  0.87595098  0.62229603  0.58443002     0.92200
C195        C  0.87767404  0.66628535  0.62662870     0.84300
C196        C  0.87257982  0.58064889  0.62813504     0.90600
O197        O  0.85155773  0.40166594  0.37922729    -0.73200
O198        O  0.85003620  0.33642854  0.37671642    -0.74200
O199        O  0.85098420  0.36793252  0.41055622    -0.62800
O200        O  0.85061562  0.37021527  0.34515235    -0.71200
O201        O  0.88670686  0.36886727  0.34503669    -0.70700
O202        O  0.88712970  0.36794599  0.41018150    -0.62000
O203        O  0.88614673  0.33562399  0.37695968    -0.74500
O204        O  0.88769161  0.40083781  0.37810149    -0.73300
Cu205      Cu  0.84951781  0.36904805  0.37790420     1.04600
Cu206      Cu  0.88816085  0.36823375  0.37756656     1.04300
C207        C  0.86988999  0.41151974  0.37916993     0.93000
C208        C  0.86786237  0.32571364  0.37634898     0.92200
C209        C  0.86917226  0.36792272  0.42066917     0.84300
C210        C  0.86866379  0.37017608  0.33478307     0.90600
O211        O  0.89388988  0.34172342  0.62726153    -0.73200
O212        O  0.89084642  0.40714930  0.62756672    -0.74200
O213        O  0.89253160  0.37403361  0.66026260    -0.62800
O214        O  0.89238027  0.37452173  0.59465255    -0.71200
O215        O  0.85631474  0.37289604  0.59478403    -0.70700
O216        O  0.85642815  0.37308192  0.66014080    -0.62000
O217        O  0.85490518  0.40545055  0.62706947    -0.74500
O218        O  0.85794481  0.34044191  0.62734350    -0.73300
Cu219      Cu  0.89369293  0.37445393  0.62745567     1.04600
Cu220      Cu  0.85518843  0.37291647  0.62738030     1.04300
C221        C  0.87630147  0.33063310  0.62709232     0.93000
C222        C  0.87234115  0.41672776  0.62714915     0.92200
C223        C  0.87445047  0.37346327  0.67055073     0.84300
C224        C  0.87429528  0.37354384  0.58437085     0.90600
O225        O  0.37539812  0.85713573  0.34042623    -0.73200
O226        O  0.37614509  0.85499707  0.40547670    -0.74200
O227        O  0.34301760  0.85694978  0.37351698    -0.62800
O228        O  0.40864906  0.85540813  0.37264737    -0.71200
O229        O  0.40933446  0.89147381  0.37463430    -0.70700
O230        O  0.34422547  0.89304085  0.37428148    -0.62000
O231        O  0.37642467  0.89104016  0.40689424    -0.74500
O232        O  0.37709780  0.89305904  0.34146417    -0.73300
Cu233      Cu  0.37579325  0.85486807  0.37291430     1.04600
Cu234      Cu  0.37681570  0.89340209  0.37427988     1.04300
C235        C  0.37614858  0.87539529  0.33049407     0.93000
C236        C  0.37591676  0.87259766  0.41653513     0.92200
C237        C  0.33331640  0.87533965  0.37459266     0.84300
C238        C  0.41930856  0.87325356  0.37403710     0.90600
O239        O  0.38127577  0.85069994  0.59068869    -0.73200
O240        O  0.38052553  0.85150464  0.65601336    -0.74200
O241        O  0.34819973  0.85100328  0.62298042    -0.62800
O242        O  0.41359468  0.85119607  0.62387914    -0.71200
O243        O  0.41355971  0.88729282  0.62319539    -0.70700
O244        O  0.34832248  0.88713593  0.62271408    -0.62000
O245        O  0.38079469  0.88761960  0.65552646    -0.74500
O246        O  0.38084018  0.88685158  0.59041241    -0.73300
Cu247      Cu  0.38090785  0.84982242  0.62338519     1.04600
Cu248      Cu  0.38088838  0.88846630  0.62293425     1.04300
C249        C  0.38101760  0.86870010  0.58026828     0.93000
C250        C  0.38079735  0.86971634  0.66608882     0.92200
C251        C  0.33794554  0.86910278  0.62279593     0.84300
C252        C  0.42392094  0.86926843  0.62401407     0.90600
O253        O  0.63011708  0.88732674  0.65958880    -0.73200
O254        O  0.63273623  0.88665024  0.59438345    -0.74200
O255        O  0.59876154  0.88776189  0.62577062    -0.62800
O256        O  0.66411527  0.88629228  0.62817550    -0.71200
O257        O  0.66341153  0.85029960  0.62872091    -0.70700
O258        O  0.59805487  0.85164075  0.62547270    -0.62000
O259        O  0.63231334  0.85056806  0.59458238    -0.74500
O260        O  0.62888103  0.85129969  0.65988487    -0.73300
Cu261      Cu  0.63148438  0.88824950  0.62698287     1.04600
Cu262      Cu  0.63066617  0.84969446  0.62720879     1.04300
C263        C  0.62859173  0.86945242  0.67009354     0.93000
C264        C  0.63308179  0.86852999  0.58413855     0.92200
C265        C  0.58809725  0.86990272  0.62503215     0.84300
C266        C  0.67419980  0.86808635  0.62860631     0.90600
O267        O  0.62653563  0.85276064  0.40963963    -0.73200
O268        O  0.62751766  0.85432128  0.34433468    -0.74200
O269        O  0.65978485  0.85361087  0.37771928    -0.62800
O270        O  0.59442284  0.85339603  0.37649370    -0.71200
O271        O  0.59414685  0.88937966  0.37776923    -0.70700
O272        O  0.65969783  0.88976346  0.37752011    -0.62000
O273        O  0.62682784  0.89038331  0.34506624    -0.74500
O274        O  0.62721179  0.88888514  0.41033228    -0.73300
Cu275      Cu  0.62706640  0.85227406  0.37699230     1.04600
Cu276      Cu  0.62694682  0.89086300  0.37770283     1.04300
C277        C  0.62684745  0.87062595  0.42029170     0.93000
C278        C  0.62736189  0.87256463  0.33433416     0.92200
C279        C  0.67004488  0.87171818  0.37793761     0.84300
C280        C  0.58384801  0.87127146  0.37710054     0.90600
O281        O  0.16455355  0.88006583  0.64189208    -0.73200
O282        O  0.09925731  0.87903648  0.64368538    -0.74200
O283        O  0.13256314  0.84709650  0.64044280    -0.62800
O284        O  0.13104653  0.91222424  0.64533964    -0.71200
O285        O  0.13035080  0.91479282  0.60943480    -0.70700
O286        O  0.13125960  0.84945622  0.60450290    -0.62000
O287        O  0.09819709  0.88173484  0.60772158    -0.74500
O288        O  0.16354417  0.88238641  0.60594390    -0.73300
Cu289      Cu  0.13191288  0.87954052  0.64406987     1.04600
Cu290      Cu  0.13082092  0.88221801  0.60564445     1.04300
C291        C  0.17443958  0.88105419  0.62362591     0.93000
C292        C  0.08838489  0.88045976  0.62601167     0.92200
C293        C  0.13233795  0.83791229  0.62177142     0.84300
C294        C  0.13025206  0.92390355  0.62817561     0.90600
O295        O  0.12444358  0.09928593  0.64667811    -0.73200
O296        O  0.12250260  0.16463934  0.64240761    -0.74200
O297        O  0.09098309  0.13103066  0.64558957    -0.62800
O298        O  0.15607006  0.13285580  0.64374519    -0.71200
O299        O  0.15533025  0.13135174  0.60766246    -0.70700
O300        O  0.08992132  0.12832932  0.60975207    -0.62000
O301        O  0.12117462  0.16233051  0.60641869    -0.74500
O302        O  0.12419645  0.09734427  0.61061781    -0.73300
Cu303      Cu  0.12353362  0.13205009  0.64585229     1.04600
Cu304      Cu  0.12260050  0.12975006  0.60735944     1.04300
C305        C  0.12488431  0.08802624  0.62918185     0.93000
C306        C  0.12138105  0.17380447  0.62375749     0.92200
C307        C  0.08001580  0.12925997  0.62805241     0.84300
C308        C  0.16600323  0.13257109  0.62549021     0.90600
O309        O  0.87185970  0.15572450  0.60947544    -0.73200
O310        O  0.87387016  0.09039242  0.60918534    -0.74200
O311        O  0.84000702  0.12178211  0.60943801    -0.62800
O312        O  0.90523747  0.12430955  0.60921851    -0.71200
O313        O  0.90532253  0.12366560  0.64533751    -0.70700
O314        O  0.84004075  0.12188302  0.64553539    -0.62000
O315        O  0.87357029  0.09016635  0.64528269    -0.74500
O316        O  0.87207490  0.15546234  0.64552241    -0.73300
Cu317      Cu  0.87265749  0.12305567  0.60806999     1.04600
Cu318      Cu  0.87269095  0.12279971  0.64667208     1.04300
C319        C  0.87244997  0.16596769  0.62758485     0.93000
C320        C  0.87438826  0.07996535  0.62717091     0.92200
C321        C  0.82971188  0.12113113  0.62749410     0.84300
C322        C  0.91556121  0.12459883  0.62726602     0.90600
O323        O  0.88135360  0.84027615  0.64703901    -0.73200
O324        O  0.88188732  0.90567570  0.64718174    -0.74200
O325        O  0.84896588  0.87309539  0.64702725    -0.62800
O326        O  0.91439288  0.87280412  0.64722946    -0.71200
O327        O  0.91429230  0.87347178  0.61110066    -0.70700
O328        O  0.84898099  0.87306333  0.61091411    -0.62000
O329        O  0.88152549  0.90568296  0.61108911    -0.74500
O330        O  0.88174242  0.84042216  0.61093861    -0.73300
Cu331      Cu  0.88166124  0.87293526  0.64838892     1.04600
Cu332      Cu  0.88165547  0.87311271  0.60976343     1.04300
C333        C  0.88123297  0.83001878  0.62894297     0.93000
C334        C  0.88184395  0.91602048  0.62913610     0.92200
C335        C  0.83864882  0.87327107  0.62895359     0.84300
C336        C  0.92463146  0.87358616  0.62914839     0.90600
O337        O  0.35688574  0.09401318  0.12636155    -0.73200
O338        O  0.35558699  0.15914606  0.12402321    -0.74200
O339        O  0.35814642  0.12556983  0.09270407    -0.62800
O340        O  0.35441559  0.12772759  0.15787878    -0.71200
O341        O  0.39040349  0.12839841  0.15992011    -0.70700
O342        O  0.39417786  0.12647012  0.09453022    -0.62000
O343        O  0.39151464  0.16018096  0.12607784    -0.74500
O344        O  0.39293611  0.09469686  0.12830875    -0.73300
Cu345      Cu  0.35503887  0.12656495  0.12519933     1.04600
Cu346      Cu  0.39353077  0.12745088  0.12731046     1.04300
C347        C  0.37507885  0.08401374  0.12746350     0.93000
C348        C  0.37325570  0.17006964  0.12438814     0.92200
C349        C  0.37667129  0.12608874  0.08326307     0.84300
C350        C  0.37182164  0.12849327  0.16927909     0.90600
O351        O  0.39898063  0.12761072  0.90873487    -0.73200
O352        O  0.39929713  0.12358311  0.84358891    -0.74200
O353        O  0.39785652  0.15839243  0.87388226    -0.62800
O354        O  0.40001715  0.09302345  0.87814252    -0.71200
O355        O  0.36390945  0.09202374  0.87797507    -0.70700
O356        O  0.36191098  0.15710077  0.87418236    -0.62000
O357        O  0.36322062  0.12256493  0.84337301    -0.74500
O358        O  0.36291006  0.12617282  0.90877168    -0.73300
Cu359      Cu  0.40028801  0.12573388  0.87611302     1.04600
Cu360      Cu  0.36173917  0.12447009  0.87607466     1.04300
C361        C  0.38096186  0.12725025  0.91910503     0.93000
C362        C  0.38135321  0.12220836  0.83315684     0.92200
C363        C  0.37951282  0.16818667  0.87327048     0.84300
C364        C  0.38221972  0.08222897  0.87883510     0.90600
O365        O  0.35938286  0.87681656  0.90633918    -0.73200
O366        O  0.35810084  0.87496526  0.84099283    -0.74200
O367        O  0.35757877  0.84322790  0.87457544    -0.62800
O368        O  0.35991587  0.90865322  0.87292699    -0.71200
O369        O  0.39598140  0.90740353  0.87255252    -0.70700
O370        O  0.39364790  0.84219094  0.87376605    -0.62000
O371        O  0.39407977  0.87422918  0.84044299    -0.74500
O372        O  0.39547389  0.87557253  0.90564264    -0.73300
Cu373      Cu  0.35747676  0.87595920  0.87370296     1.04600
Cu374      Cu  0.39602752  0.87478031  0.87304293     1.04300
C375        C  0.37764737  0.87647656  0.91630995     0.93000
C376        C  0.37590355  0.87444473  0.83027735     0.92200
C377        C  0.37532766  0.83236478  0.87463983     0.84300
C378        C  0.37832250  0.91838718  0.87268245     0.90600
O379        O  0.36358069  0.90930396  0.12473374    -0.73200
O380        O  0.36636934  0.84414531  0.12071237    -0.74200
O381        O  0.36455023  0.87457036  0.15516105    -0.62800
O382        O  0.36535365  0.87876446  0.09009868    -0.71200
O383        O  0.40142839  0.87983478  0.09057428    -0.70700
O384        O  0.40054383  0.87639984  0.15591183    -0.62000
O385        O  0.40235880  0.84544439  0.12158075    -0.74500
O386        O  0.39967076  0.91068628  0.12490821    -0.73300
Cu387      Cu  0.36372443  0.87665650  0.12264569     1.04600
Cu388      Cu  0.40226089  0.87815387  0.12325817     1.04300
C389        C  0.38123640  0.92031501  0.12521572     0.93000
C390        C  0.38476168  0.83439509  0.12068257     0.92200
C391        C  0.38237863  0.87468343  0.16589893     0.84300
C392        C  0.38350806  0.87972776  0.07999006     0.90600
O393        O  0.84492038  0.35596072  0.12767262    -0.73200
O394        O  0.91051613  0.35598793  0.12767248    -0.74200
O395        O  0.87728570  0.35526690  0.16002727    -0.62800
O396        O  0.87807146  0.35625574  0.09503835    -0.71200
O397        O  0.87755176  0.39238489  0.09526637    -0.70700
O398        O  0.87760099  0.39124838  0.16089529    -0.62000
O399        O  0.91023735  0.39207303  0.12783309    -0.74500
O400        O  0.84492382  0.39207788  0.12833197    -0.73300
Cu401      Cu  0.87769633  0.35463544  0.12754864     1.04600
Cu402      Cu  0.87758218  0.39321611  0.12808538     1.04300
C403        C  0.83460454  0.37402105  0.12864215     0.93000
C404        C  0.92075482  0.37412576  0.12762778     0.92200
C405        C  0.87717088  0.37295862  0.17088827     0.84300
C406        C  0.87829561  0.37436223  0.08484901     0.90600
O407        O  0.84211202  0.35085807  0.87932664    -0.73200
O408        O  0.90754529  0.35235036  0.87682037    -0.74200
O409        O  0.87594119  0.35201011  0.91079423    -0.62800
O410        O  0.87356031  0.35094704  0.84537458    -0.71200
O411        O  0.87276765  0.38702877  0.84496464    -0.70700
O412        O  0.87528579  0.38810628  0.91032033    -0.62000
O413        O  0.90652095  0.38841646  0.87636768    -0.74500
O414        O  0.84148654  0.38683987  0.87899077    -0.73300
Cu415      Cu  0.87483749  0.35027109  0.87810700     1.04600
Cu416      Cu  0.87399300  0.38882599  0.87764225     1.04300
C417        C  0.83137167  0.36865721  0.87955893     0.93000
C418        C  0.91738800  0.37069122  0.87624863     0.92200
C419        C  0.87571175  0.37020212  0.92090459     0.84300
C420        C  0.87268990  0.36884490  0.83481149     0.90600
O421        O  0.09580390  0.36402077  0.12187811    -0.73200
O422        O  0.16105122  0.36703446  0.12257329    -0.74200
O423        O  0.12812801  0.36594972  0.15500793    -0.62800
O424        O  0.12863394  0.36501000  0.08963583    -0.71200
O425        O  0.12745955  0.40106632  0.08909306    -0.70700
O426        O  0.12607071  0.40201276  0.15458473    -0.62000
O427        O  0.15964680  0.40299038  0.12265852    -0.74500
O428        O  0.09417133  0.40011375  0.12128366    -0.73300
Cu429      Cu  0.12848656  0.36427289  0.12231661     1.04600
Cu430      Cu  0.12681408  0.40281311  0.12188803     1.04300
C431        C  0.08468183  0.38158367  0.12123879     0.93000
C432        C  0.17080570  0.38543863  0.12263543     0.92200
C433        C  0.12671263  0.38408817  0.16511620     0.84300
C434        C  0.12808105  0.38286804  0.07897998     0.90600
O435        O  0.12498793  0.36013146  0.83938529    -0.73200
O436        O  0.12308083  0.36073469  0.90470563    -0.74200
O437        O  0.09120481  0.36035944  0.87074164    -0.62800
O438        O  0.15638500  0.36057674  0.87290098    -0.71200
O439        O  0.15624171  0.39665979  0.87235898    -0.70700
O440        O  0.09098104  0.39652014  0.87103674    -0.62000
O441        O  0.12287770  0.39688377  0.90450496    -0.74500
O442        O  0.12435965  0.39625093  0.83909242    -0.73300
Cu443      Cu  0.12385519  0.35919310  0.87199473     1.04600
Cu444      Cu  0.12358062  0.39784089  0.87177353     1.04300
C445        C  0.12530365  0.37810116  0.82893396     0.93000
C446        C  0.12308134  0.37887705  0.91491532     0.92200
C447        C  0.08082910  0.37838533  0.87027646     0.84300
C448        C  0.16666747  0.37866776  0.87274171     0.90600
O449        O  0.60009188  0.83745839  0.12711669    -0.73200
O450        O  0.59996957  0.90299640  0.12736002    -0.74200
O451        O  0.59953355  0.87052846  0.09465122    -0.62800
O452        O  0.60040083  0.87039696  0.16005524    -0.71200
O453        O  0.63638756  0.86945650  0.15957013    -0.70700
O454        O  0.63561082  0.87135089  0.09420573    -0.62000
O455        O  0.63612424  0.90287973  0.12801666    -0.74500
O456        O  0.63613999  0.83765087  0.12592192    -0.73300
Cu457      Cu  0.59873446  0.87027847  0.12731545     1.04600
Cu458      Cu  0.63730584  0.87028363  0.12689893     1.04300
C459        C  0.61817378  0.82716260  0.12641648     0.93000
C460        C  0.61808641  0.91321358  0.12801813     0.92200
C461        C  0.61741076  0.87156825  0.08408249     0.84300
C462        C  0.61852678  0.87004431  0.17025714     0.90600
O463        O  0.60313561  0.87214282  0.84383647    -0.73200
O464        O  0.60077718  0.87549778  0.90918006    -0.74200
O465        O  0.60263008  0.90650535  0.87509258    -0.62800
O466        O  0.60116181  0.84137784  0.87822698    -0.71200
O467        O  0.63711508  0.84067135  0.87912864    -0.70700
O468        O  0.63873916  0.90586283  0.87638035    -0.62000
O469        O  0.63688672  0.87487751  0.91033900    -0.74500
O470        O  0.63923804  0.87189808  0.84520524    -0.73300
Cu471      Cu  0.60066613  0.87392608  0.87651084     1.04600
Cu472      Cu  0.63924230  0.87329156  0.87780769     1.04300
C473        C  0.62158338  0.87135021  0.83422452     0.93000
C474        C  0.61852357  0.87581752  0.92004862     0.92200
C475        C  0.62089436  0.91647930  0.87531470     0.84300
C476        C  0.61887792  0.83058529  0.87908967     0.90600
O477        O  0.64414234  0.12276688  0.84522827    -0.73200
O478        O  0.64388403  0.12299074  0.91043532    -0.74200
O479        O  0.64332297  0.09009182  0.87779406    -0.62800
O480        O  0.64438253  0.15555736  0.87781533    -0.71200
O481        O  0.60833125  0.15585502  0.87769412    -0.70700
O482        O  0.60720728  0.09078363  0.87712138    -0.62000
O483        O  0.60771927  0.12283255  0.91029375    -0.74500
O484        O  0.60806845  0.12344949  0.84481252    -0.73300
Cu485      Cu  0.64519288  0.12283148  0.87784309     1.04600
Cu486      Cu  0.60657753  0.12327899  0.87750960     1.04300
C487        C  0.62623056  0.12285027  0.83466049     0.93000
C488        C  0.62578841  0.12278250  0.92064410     0.92200
C489        C  0.62504234  0.08013288  0.87706967     0.84300
C490        C  0.62642814  0.16609929  0.87782784     0.90600
O491        O  0.60581670  0.12176728  0.09419245    -0.73200
O492        O  0.60102737  0.11918554  0.15922953    -0.74200
O493        O  0.60341622  0.15305690  0.12801427    -0.62800
O494        O  0.60328421  0.08767118  0.12542593    -0.71200
O495        O  0.63926767  0.08745653  0.12804977    -0.70700
O496        O  0.63944538  0.15279695  0.13087886    -0.62000
O497        O  0.63699615  0.11903648  0.16182766    -0.74500
O498        O  0.64168899  0.12149213  0.09671262    -0.73300
Cu499      Cu  0.60214313  0.12037648  0.12659761     1.04600
Cu500      Cu  0.64059973  0.12014121  0.12941815     1.04300
C501        C  0.62450447  0.12228601  0.08503364     0.93000
C502        C  0.61826221  0.11922127  0.17087869     0.92200
C503        C  0.62144507  0.16320584  0.13024487     0.84300
C504        C  0.62124930  0.07719657  0.12627122     0.90600
O505        O  0.09428260  0.60229512  0.12152203    -0.73200
O506        O  0.15964410  0.60521417  0.11660504    -0.74200
O507        O  0.12947032  0.60578082  0.15185746    -0.62800
O508        O  0.12454859  0.60178466  0.08641094    -0.71200
O509        O  0.12257212  0.63780393  0.08471437    -0.70700
O510        O  0.12792840  0.64174172  0.14962918    -0.62000
O511        O  0.15787970  0.64117431  0.11450744    -0.74500
O512        O  0.09283321  0.63832771  0.11982143    -0.73300
Cu513      Cu  0.12704862  0.60248570  0.11918407     1.04600
Cu514      Cu  0.12525133  0.64097090  0.11710129     1.04300
C515        C  0.08322217  0.61992711  0.12126605     0.93000
C516        C  0.16910919  0.62366614  0.11462000     0.92200
C517        C  0.12973180  0.62448044  0.16106990     0.84300
C518        C  0.12250652  0.61925993  0.07528279     0.90600
O519        O  0.12675065  0.61290004  0.83473601    -0.73200
O520        O  0.12407995  0.60811686  0.89988450    -0.74200
O521        O  0.09263433  0.60989992  0.86603071    -0.62800
O522        O  0.15787643  0.61109397  0.86887024    -0.71200
O523        O  0.15730372  0.64720214  0.87035431    -0.70700
O524        O  0.09197719  0.64584284  0.86970909    -0.62000
O525        O  0.12444355  0.64413849  0.90249786    -0.74500
O526        O  0.12492515  0.64890613  0.83721613    -0.73300
Cu527      Cu  0.12532775  0.60925265  0.86722621     1.04600
Cu528      Cu  0.12460292  0.64778591  0.86997749     1.04300
C529        C  0.12639348  0.63163453  0.82569310     0.93000
C530        C  0.12434955  0.62538363  0.91150669     0.92200
C531        C  0.08198629  0.62768137  0.86781530     0.84300
C532        C  0.16786598  0.62928241  0.87038592     0.90600
O533        O  0.84267908  0.60616149  0.87807184    -0.73200
O534        O  0.90798728  0.60697011  0.87714725    -0.74200
O535        O  0.87567017  0.60663608  0.91016089    -0.62800
O536        O  0.87499137  0.60656048  0.84482570    -0.71200
O537        O  0.87407099  0.64267568  0.84480336    -0.70700
O538        O  0.87598748  0.64278116  0.91017907    -0.62000
O539        O  0.90771804  0.64307205  0.87661096    -0.74500
O540        O  0.84228979  0.64222550  0.87843358    -0.73300
Cu541      Cu  0.87534722  0.60533687  0.87751499     1.04600
Cu542      Cu  0.87499142  0.64395526  0.87747586     1.04300
C543        C  0.83211272  0.62406918  0.87885622     0.93000
C544        C  0.91820394  0.62509513  0.87694160     0.92200
C545        C  0.87585880  0.62470669  0.92047312     0.84300
C546        C  0.87456253  0.62460741  0.83448995     0.90600
O547        O  0.90932344  0.64139204  0.12900044    -0.73200
O548        O  0.84399834  0.64241817  0.12662497    -0.74200
O549        O  0.87537801  0.64171523  0.16060903    -0.62800
O550        O  0.87794743  0.64197312  0.09506212    -0.71200
O551        O  0.87718004  0.60592166  0.09504916    -0.70700
O552        O  0.87452237  0.60561234  0.16020284    -0.62000
O553        O  0.84326808  0.60636119  0.12651058    -0.74500
O554        O  0.90858988  0.60527325  0.12903304    -0.73300
Cu555      Cu  0.87668279  0.64314700  0.12781657     1.04600
Cu556      Cu  0.87588763  0.60456001  0.12766206     1.04300
C557        C  0.91927571  0.62313101  0.12951418     0.93000
C558        C  0.83325044  0.62460056  0.12659026     0.92200
C559        C  0.87423377  0.62354906  0.17072058     0.84300
C560        C  0.87818807  0.62391273  0.08467934     0.90600
O561        O  0.37622102  0.34430214  0.09832862    -0.73200
O562        O  0.37894267  0.40969000  0.09838629    -0.74200
O563        O  0.41044018  0.37561405  0.09735988    -0.62800
O564        O  0.34491719  0.37852963  0.09941424    -0.71200
O565        O  0.34612797  0.37853006  0.13547196    -0.70700
O566        O  0.41117692  0.37605358  0.13347761    -0.62000
O567        O  0.37979512  0.40968763  0.13437580    -0.74500
O568        O  0.37714322  0.34451140  0.13443832    -0.73300
Cu569      Cu  0.37762679  0.37698455  0.09708555     1.04600
Cu570      Cu  0.37865410  0.37712617  0.13566159     1.04300
C571        C  0.37588514  0.33412325  0.11645622     0.93000
C572        C  0.37955643  0.42010254  0.11641538     0.92200
C573        C  0.42111465  0.37582399  0.11522510     0.84300
C574        C  0.33521721  0.37946823  0.11781217     0.90600
O575        O  0.37816942  0.66023590  0.09948770    -0.73200
O576        O  0.37663431  0.59497408  0.09786909    -0.74200
O577        O  0.34443951  0.62835183  0.09747708    -0.62800
O578        O  0.40978887  0.62669144  0.09990293    -0.71200
O579        O  0.40841807  0.62512127  0.13594073    -0.70700
O580        O  0.34311650  0.62831971  0.13355193    -0.62000
O581        O  0.37440486  0.59409714  0.13391667    -0.74500
O582        O  0.37745726  0.65941913  0.13554887    -0.73300
Cu583      Cu  0.37722889  0.62761315  0.09743347     1.04600
Cu584      Cu  0.37573914  0.62672913  0.13600012     1.04300
C585        C  0.37869606  0.67014846  0.11777717     0.93000
C586        C  0.37571620  0.58423747  0.11564202     0.92200
C587        C  0.33344275  0.62879755  0.11513571     0.84300
C588        C  0.41942398  0.62546505  0.11829237     0.90600
O589        O  0.62422414  0.65259253  0.10687821    -0.73200
O590        O  0.62783045  0.58734776  0.10705844    -0.74200
O591        O  0.59348429  0.61808662  0.10716386    -0.62800
O592        O  0.65878870  0.62200851  0.10700803    -0.71200
O593        O  0.65884158  0.62150611  0.14311838    -0.70700
O594        O  0.59367875  0.61897415  0.14314688    -0.62000
O595        O  0.62723269  0.58759540  0.14315535    -0.74500
O596        O  0.62504856  0.65297133  0.14297343    -0.73300
Cu597      Cu  0.62613216  0.62000076  0.10576659     1.04600
Cu598      Cu  0.62625173  0.62026057  0.14434848     1.04300
C599        C  0.62391776  0.66308553  0.12483178     0.93000
C600        C  0.62741102  0.57713793  0.12516586     0.92200
C601        C  0.58317808  0.61801328  0.12524766     0.84300
C602        C  0.66910801  0.62251868  0.12507379     0.90600
O603        O  0.62940920  0.33660395  0.11438476    -0.73200
O604        O  0.62776421  0.40194447  0.11158477    -0.74200
O605        O  0.66096655  0.37017338  0.11538122    -0.62800
O606        O  0.59628661  0.36834629  0.11019158    -0.71200
O607        O  0.59312637  0.37024043  0.14607628    -0.70700
O608        O  0.65869441  0.37127058  0.15126935    -0.62000
O609        O  0.62551998  0.40343337  0.14757712    -0.74500
O610        O  0.62610456  0.33803470  0.15030365    -0.73300
Cu611      Cu  0.62871782  0.36921589  0.11168639     1.04600
Cu612      Cu  0.62576898  0.37079468  0.15009958     1.04300
C613        C  0.62795277  0.32698806  0.13277092     0.93000
C614        C  0.62629002  0.41302092  0.12913972     0.92200
C615        C  0.67025303  0.37097663  0.13396565     0.84300
C616        C  0.58439169  0.36896708  0.12720287     0.90600
O617        O  0.37376882  0.65789204  0.85494172    -0.73200
O618        O  0.37537838  0.59260946  0.85569116    -0.74200
O619        O  0.34176289  0.62448187  0.85556474    -0.62800
O620        O  0.40705336  0.62604476  0.85523938    -0.71200
O621        O  0.40709102  0.62620451  0.89134098    -0.70700
O622        O  0.34182288  0.62509348  0.89166927    -0.62000
O623        O  0.37497899  0.59289628  0.89182108    -0.74500
O624        O  0.37366586  0.65830305  0.89107834    -0.73300
Cu625      Cu  0.37446127  0.62522802  0.85410210     1.04600
Cu626      Cu  0.37441148  0.62562790  0.89274110     1.04300
C627        C  0.37332361  0.66838517  0.87288981     0.93000
C628        C  0.37563814  0.58246119  0.87383265     0.92200
C629        C  0.33146944  0.62458534  0.87364343     0.84300
C630        C  0.41739708  0.62648543  0.87327367     0.90600
O631        O  0.65695487  0.62269884  0.89320866    -0.73200
O632        O  0.59160482  0.62323213  0.89294594    -0.74200
O633        O  0.62391232  0.59016810  0.89206626    -0.62800
O634        O  0.62447081  0.65538218  0.89428612    -0.71200
O635        O  0.62452434  0.65660619  0.85828530    -0.70700
O636        O  0.62412170  0.59110711  0.85601882    -0.62000
O637        O  0.59181376  0.62418514  0.85686147    -0.74500
O638        O  0.65718941  0.62361477  0.85726239    -0.73300
Cu639      Cu  0.62425352  0.62278267  0.89435678     1.04600
Cu640      Cu  0.62444945  0.62389720  0.85584445     1.04300
C641        C  0.66753751  0.62333131  0.87529442     0.93000
C642        C  0.58139129  0.62418091  0.87485041     0.92200
C643        C  0.62391207  0.58025954  0.87376700     0.84300
C644        C  0.62449327  0.66639275  0.87665458     0.90600
O645        O  0.65720874  0.37501105  0.85877229    -0.73200
O646        O  0.59180359  0.37166321  0.85544509    -0.74200
O647        O  0.62276469  0.40596219  0.85730926    -0.62800
O648        O  0.62618930  0.34076340  0.85637942    -0.71200
O649        O  0.62413661  0.34003715  0.89241315    -0.70700
O650        O  0.62194863  0.40558058  0.89340810    -0.62000
O651        O  0.59029747  0.37178198  0.89151488    -0.74500
O652        O  0.65537885  0.37368551  0.89464618    -0.73300
Cu653      Cu  0.62453596  0.37337411  0.85572131     1.04600
Cu654      Cu  0.62283782  0.37275770  0.89424074     1.04300
C655        C  0.66673450  0.37472347  0.87731485     0.93000
C656        C  0.58072873  0.37124037  0.87305419     0.92200
C657        C  0.62211784  0.41610078  0.87544963     0.84300
C658        C  0.62594893  0.33009514  0.87421216     0.90600
O659        O  0.37385453  0.40721374  0.88735252    -0.73200
O660        O  0.37210347  0.34197719  0.88433489    -0.74200
O661        O  0.40549489  0.37364240  0.88669278    -0.62800
O662        O  0.34038445  0.37530845  0.88503853    -0.71200
O663        O  0.34110383  0.37732346  0.84898502    -0.70700
O664        O  0.40659676  0.37512846  0.85070846    -0.62000
O665        O  0.37280258  0.34354673  0.84830527    -0.74500
O666        O  0.37501118  0.40890083  0.85134695    -0.73300
Cu667      Cu  0.37289840  0.37451850  0.88708230     1.04600
Cu668      Cu  0.37388586  0.37630898  0.84856174     1.04300
C669        C  0.37504782  0.41840028  0.86986719     0.93000
C670        C  0.37241731  0.33240253  0.86586433     0.92200
C671        C  0.41641748  0.37387960  0.86903018     0.84300
C672        C  0.33043519  0.37622197  0.86680851     0.90600
C673        C  0.52223280  0.36026256  0.85559766    -0.11600
C674        C  0.51071920  0.37301600  0.87063866     0.14900
C675        C  0.52230301  0.38453122  0.88683367     0.01800
C676        C  0.54503100  0.38315089  0.88753898    -0.16000
C677        C  0.55664735  0.37073989  0.87224235    -0.10800
C678        C  0.54497735  0.35880371  0.85635699     0.08500
C679        C  0.48661584  0.37304843  0.86977686     0.09600
S680        S  0.50910652  0.40146562  0.90688755    -0.25100
H681        H  0.55376533  0.39234921  0.89982054     0.19800
S682        S  0.55795592  0.34046023  0.83747530    -0.30800
H683        H  0.51335976  0.35096182  0.84349332     0.10200
C684        C  0.47519697  0.38341101  0.85280102     0.03400
C685        C  0.45233724  0.38327283  0.85288004    -0.13100
C686        C  0.44057765  0.37309387  0.86968247    -0.08800
C687        C  0.45223066  0.36245872  0.88650679     0.06800
C688        C  0.47500262  0.36249404  0.88630701    -0.13900
S689        S  0.48972919  0.39744163  0.83143805    -0.30800
H690        H  0.44357847  0.39149520  0.83998987     0.11100
S691        S  0.43908073  0.34751896  0.90798692    -0.27900
H692        H  0.48379577  0.35424587  0.89919080     0.08300
H693        H  0.57374721  0.33305149  0.85233505     0.26700
H694        H  0.47134730  0.40366915  0.81927706     0.21500
H695        H  0.43206186  0.36663967  0.91849552     0.26800
H696        H  0.49135467  0.40756852  0.89379283     0.15700
C697        C  0.63024582  0.52074834  0.85688947    -0.11600
C698        C  0.61915043  0.51019116  0.87381256     0.14900
C699        C  0.60980493  0.52271124  0.89063550     0.01800
C700        C  0.61192122  0.54539731  0.89029286    -0.16000
C701        C  0.62304657  0.55610160  0.87339098    -0.10800
C702        C  0.63254501  0.54344687  0.85661476     0.08500
C703        C  0.61921222  0.48608196  0.87439230     0.09600
S704        S  0.59500760  0.51073098  0.91298660    -0.25100
H705        H  0.60446559  0.55480106  0.90322436     0.19800
S706        S  0.64902667  0.55496869  0.83525683    -0.30800
H707        H  0.63784886  0.51113254  0.84419610     0.10200
C708        C  0.60638929  0.47363037  0.85999694     0.03400
C709        C  0.60771107  0.45080760  0.86061812    -0.13100
C710        C  0.62150181  0.44018170  0.87546687    -0.08800
C711        C  0.63437587  0.45279690  0.88980555     0.06800
C712        C  0.63291867  0.47552549  0.88926477    -0.13900
S713        S  0.58793889  0.48681933  0.84128792    -0.30800
H714        H  0.59779033  0.44116089  0.84967913     0.11100
S715        S  0.65394203  0.44098025  0.90818106    -0.27900
H716        H  0.64298028  0.48512213  0.90014846     0.08300
H717        H  0.65967485  0.56998925  0.84892579     0.26700
H718        H  0.57917275  0.46769723  0.83219829     0.21500
H719        H  0.66095749  0.42493050  0.89341675     0.26800
H720        H  0.58745698  0.49238870  0.90154927     0.15700
C721        C  0.38478549  0.47661808  0.88923650    -0.11600
C722        C  0.37499969  0.48850715  0.87240960     0.14900
C723        C  0.36590906  0.47733135  0.85451371     0.01800
C724        C  0.36663359  0.45456751  0.85390607    -0.16000
C725        C  0.37607262  0.44251435  0.87091380    -0.10800
C726        C  0.38571534  0.45384796  0.88856181     0.08500
C727        C  0.37543672  0.51256624  0.87346014     0.09600
S728        S  0.35302763  0.49116840  0.83204310    -0.25100
H729        H  0.35926007  0.44618953  0.84023141     0.19800
S730        S  0.40057597  0.44045656  0.91003599    -0.30800
H731        H  0.39223715  0.48520837  0.90274256     0.10200
C732        C  0.36141493  0.52418554  0.88740420     0.03400
C733        C  0.36216296  0.54702774  0.88761261    -0.13100
C734        C  0.37654609  0.55844999  0.87401099    -0.08800
C735        C  0.39092279  0.54668526  0.86042029     0.06800
C736        C  0.39006577  0.52392448  0.86014792    -0.13900
S737        S  0.34200247  0.50992138  0.90425635    -0.30800
H738        H  0.35114807  0.55606595  0.89798964     0.11100
S739        S  0.41126120  0.55968674  0.84370828    -0.27900
H740        H  0.40102889  0.51494956  0.84963323     0.08300
H741        H  0.41069405  0.42526822  0.89617116     0.26700
H742        H  0.33169492  0.52850514  0.91279539     0.21500
H743        H  0.41581735  0.57656188  0.85853055     0.26800
H744        H  0.34516550  0.50892790  0.84414819     0.15700
C745        C  0.47645104  0.63657459  0.85753410    -0.11600
C746        C  0.48737117  0.62457882  0.87357930     0.14900
C747        C  0.47523018  0.61377241  0.88980716     0.01800
C748        C  0.45249793  0.61513001  0.88958739    -0.16000
C749        C  0.44147165  0.62685357  0.87334577    -0.10800
C750        C  0.45372350  0.63803365  0.85736004     0.08500
C751        C  0.51144153  0.62454167  0.87356605     0.09600
S752        S  0.48772932  0.59782370  0.91106759    -0.25100
H753        H  0.44331894  0.60647941  0.90191988     0.19800
S754        S  0.44152549  0.65544465  0.83713201    -0.30800
H755        H  0.48577184  0.64529471  0.84535319     0.10200
C756        C  0.52334845  0.61324241  0.85755970     0.03400
C757        C  0.54616883  0.61367369  0.85818873    -0.13100
C758        C  0.55734164  0.62509695  0.87457578    -0.08800
C759        C  0.54526785  0.63681038  0.89032091     0.06800
C760        C  0.52251157  0.63619728  0.88976650    -0.13900
S761        S  0.50947559  0.59765202  0.83681003    -0.30800
H762        H  0.55537135  0.60472516  0.84611162     0.11100
S763        S  0.55778523  0.65368588  0.91084965    -0.27900
H764        H  0.51330859  0.64516648  0.90185756     0.08300
H765        H  0.42561224  0.66392398  0.85124558     0.26700
H766        H  0.52822612  0.58900123  0.82691689     0.21500
H767        H  0.57425841  0.66171851  0.89710537     0.26800
H768        H  0.50601703  0.59126877  0.89898071     0.15700
C769        C  0.61655994  0.47136354  0.11061826    -0.11600
C770        C  0.62825912  0.48302415  0.12638813     0.14900
C771        C  0.63869930  0.47162128  0.14338479     0.01800
C772        C  0.63728570  0.44888294  0.14420015    -0.16000
C773        C  0.62589432  0.43710952  0.12821879    -0.10800
C774        C  0.61503159  0.44863091  0.11148601     0.08500
C775        C  0.62801509  0.50711135  0.12554845     0.09600
S776        S  0.65419646  0.48513191  0.16438358    -0.25100
H777        H  0.64564596  0.44027236  0.15713236     0.19800
S778        S  0.59788747  0.43547453  0.09159200    -0.30800
H779        H  0.60805479  0.48011694  0.09787605     0.10200
C780        C  0.64018391  0.51875613  0.10997747     0.03400
C781        C  0.63955637  0.54161994  0.11001286    -0.13100
C782        C  0.62689754  0.55305225  0.12526022    -0.08800
C783        C  0.61408890  0.54120235  0.14029834     0.06800
C784        C  0.61507659  0.51845852  0.14050034    -0.13900
S785        S  0.65707724  0.50450392  0.09059592    -0.30800
H786        H  0.64928023  0.55064713  0.09841448     0.11100
S787        S  0.59523988  0.55399947  0.15881039    -0.27900
H788        H  0.60533979  0.50946504  0.15214412     0.08300
H789        H  0.58940147  0.41993957  0.10613554     0.26700
H790        H  0.66371925  0.52296080  0.07878073     0.21500
H791        H  0.58823697  0.56990489  0.14388596     0.26800
H792        H  0.66112555  0.50274216  0.15152011     0.15700
C793        C  0.47970211  0.63096563  0.10512437    -0.11600
C794        C  0.48894435  0.61708213  0.12071799     0.14900
C795        C  0.47520909  0.60640205  0.13575727     0.01800
C796        C  0.45272344  0.60996736  0.13495673    -0.16000
C797        C  0.44342481  0.62368982  0.11921174    -0.10800
C798        C  0.45722120  0.63450976  0.10428781     0.08500
C799        C  0.51300805  0.61580765  0.12216334     0.09600
S800        S  0.48529399  0.58778854  0.15610952    -0.25100
H801        H  0.44232899  0.60145476  0.14639029     0.19800
S802        S  0.44740455  0.65404221  0.08471482    -0.30800
H803        H  0.49020297  0.63969005  0.09394720     0.10200
C804        C  0.52577204  0.60764122  0.10494307     0.03400
C805        C  0.54855721  0.60835013  0.10654558    -0.13100
C806        C  0.55898687  0.61669434  0.12518975    -0.08800
C807        C  0.54595175  0.62405371  0.14276605     0.06800
C808        C  0.52327685  0.62387440  0.14086118    -0.13900
S809        S  0.51308317  0.59591952  0.08111217    -0.30800
H810        H  0.55830061  0.60229203  0.09317827     0.11100
S811        S  0.55697870  0.63480059  0.16770112    -0.27900
H812        H  0.51347878  0.63023809  0.15408307     0.08300
H813        H  0.43165047  0.66312196  0.09865631     0.26700
H814        H  0.53239935  0.59016274  0.07024701     0.21500
H815        H  0.56615371  0.61466935  0.17369779     0.26800
H816        H  0.50332996  0.58052500  0.14403455     0.15700
C817        C  0.52360434  0.36154737  0.13736576    -0.11600
C818        C  0.51484483  0.37139983  0.11873431     0.14900
C819        C  0.52898872  0.37995151  0.10279729     0.01800
C820        C  0.55150211  0.37840942  0.10583278    -0.16000
C821        C  0.56039676  0.36881103  0.12462540    -0.10800
C822        C  0.54614104  0.35983664  0.14033193     0.08500
C823        C  0.49090100  0.37279261  0.11672140     0.09600
S824        S  0.51946046  0.39323807  0.07838515    -0.25100
H825        H  0.56217255  0.38533984  0.09361410     0.19800
S826        S  0.55551258  0.34502621  0.16385460    -0.30800
H827        H  0.51274835  0.35476621  0.14950884     0.10200
C828        C  0.47903552  0.35919950  0.10250421     0.03400
C829        C  0.45622920  0.36095446  0.10168982    -0.13100
C830        C  0.44515200  0.37592758  0.11495404    -0.08800
C831        C  0.45725828  0.38998165  0.12860166     0.06800
C832        C  0.47988789  0.38803885  0.12957424    -0.13900
S833        S  0.49286412  0.33908906  0.08611430    -0.30800
H834        H  0.44693786  0.35018298  0.09125964     0.11100
S835        S  0.44489427  0.41127188  0.14455480    -0.27900
H836        H  0.48906647  0.39872411  0.14022541     0.08300
H837        H  0.57240762  0.33426467  0.15273153     0.26700
H838        H  0.47430599  0.33142085  0.07507528     0.21500
H839        H  0.42874814  0.41628713  0.12909831     0.26800
H840        H  0.49979480  0.40109125  0.08701515     0.15700
C841        C  0.39031426  0.52588932  0.10123405    -0.11600
C842        C  0.37564182  0.51431213  0.11431438     0.14900
C843        C  0.36111636  0.52582503  0.12790535     0.01800
C844        C  0.36178445  0.54859413  0.12835134    -0.16000
C845        C  0.37631205  0.56022588  0.11511310    -0.10800
C846        C  0.39093256  0.54865259  0.10159505     0.08500
C847        C  0.37683923  0.49026702  0.11449159     0.09600
S848        S  0.34121381  0.51241230  0.14481857    -0.25100
H849        H  0.35051116  0.55732533  0.13874321     0.19800
S850        S  0.41160365  0.56184919  0.08545614    -0.30800
H851        H  0.40176849  0.51707625  0.09110976     0.10200
C852        C  0.36971453  0.47774566  0.09667122     0.03400
C853        C  0.37109932  0.45496988  0.09767924    -0.13100
C854        C  0.37926552  0.44432650  0.11627427    -0.08800
C855        C  0.38643179  0.45716154  0.13410540     0.06800
C856        C  0.38531560  0.47986408  0.13289576    -0.13900
S857        S  0.35809714  0.49075795  0.07299617    -0.30800
H858        H  0.36533405  0.44540523  0.08404219     0.11100
S859        S  0.39771168  0.44584150  0.15864070    -0.27900
H860        H  0.39094917  0.48956727  0.14652896     0.08300
H861        H  0.41639692  0.57799567  0.10099289     0.26700
H862        H  0.35442986  0.47166147  0.06088252     0.21500
H863        H  0.37748907  0.43744268  0.16541087     0.26800
H864        H  0.33800418  0.49438317  0.13106852     0.15700
C865        C  0.77402157  0.64176845  0.13423331    -0.11600
C866        C  0.76308080  0.62406853  0.12489622     0.14900
C867        C  0.77519820  0.60668222  0.11605229     0.01800
C868        C  0.79795381  0.60719607  0.11710653    -0.16000
C869        C  0.80907666  0.62489029  0.12650920    -0.10800
C870        C  0.79676942  0.64226404  0.13543687     0.08500
C871        C  0.73902465  0.62387121  0.12541776     0.09600
S872        S  0.76260595  0.58338233  0.10329550    -0.25100
H873        H  0.80704959  0.59376881  0.11016208     0.19800
S874        S  0.80881560  0.66486774  0.14978735    -0.30800
H875        H  0.76470004  0.65499775  0.14127594     0.10200
C876        C  0.72751627  0.61116410  0.14064114     0.03400
C877        C  0.70468335  0.61131399  0.14039180    -0.13100
C878        C  0.69312483  0.62395303  0.12523788    -0.08800
C879        C  0.70478998  0.63728872  0.11052752     0.21200
C880        C  0.72756947  0.63694433  0.11065912    -0.13900
S881        S  0.74192151  0.59490405  0.16046539    -0.30800
H882        H  0.69577163  0.60126005  0.15179759     0.11100
S883        S  0.69167337  0.65580464  0.09191245    -0.27900
H884        H  0.73647407  0.64706399  0.09927766     0.08300
H885        H  0.82352154  0.65183908  0.16159083     0.26700
H886        H  0.72342330  0.58636263  0.17091981     0.21500
H887        H  0.67489826  0.66173866  0.10633894     0.26800
H888        H  0.74399868  0.59430004  0.09567796     0.15700
C889        C  0.77279056  0.63958999  0.88898098    -0.11600
C890        C  0.76193801  0.62173753  0.87979622     0.14900
C891        C  0.77417178  0.60435712  0.87112044     0.01800
C892        C  0.79693247  0.60556120  0.87109325    -0.16000
C893        C  0.80795571  0.62356650  0.88002486    -0.10800
C894        C  0.79555671  0.64050403  0.88962372     0.08500
C895        C  0.73787059  0.62208697  0.87882886     0.09600
S896        S  0.76170579  0.58028930  0.85975641    -0.25100
H897        H  0.80609238  0.59231190  0.86389750     0.19800
S898        S  0.80757386  0.66320779  0.90383731    -0.30800
H899        H  0.76340186  0.65281071  0.89594781     0.10200
C900        C  0.72508963  0.61836721  0.89744039     0.03400
C901        C  0.70231855  0.61896947  0.89573871    -0.13100
C902        C  0.69186130  0.62348329  0.87580081    -0.08800
C903        C  0.70502454  0.62765390  0.85722999     0.06800
C904        C  0.72772580  0.62658490  0.85894608    -0.13900
S905        S  0.73781411  0.61224753  0.92324112    -0.30800
H906        H  0.69264542  0.61570102  0.91008200     0.11100
S907        S  0.69433597  0.63514072  0.83099167    -0.27900
H908        H  0.73765558  0.62971884  0.84470347     0.08300
H909        H  0.82330931  0.65048013  0.91459446     0.26700
H910        H  0.71852880  0.61039392  0.93544204     0.21500
H911        H  0.68129885  0.65183328  0.83954603     0.26800
H912        H  0.74308638  0.58051469  0.87305072     0.15700
C913        C  0.86373266  0.61106419  0.97954266    -0.11600
C914        C  0.87861395  0.62458458  0.99037330     0.14900
C915        C  0.89267790  0.63801167  0.97809088     0.01800
C916        C  0.89098181  0.63822117  0.95536156    -0.16000
C917        C  0.87606303  0.62471721  0.94449867    -0.10800
C918        C  0.86219478  0.61108962  0.95681331     0.08500
C919        C  0.87859146  0.62474092  0.01447561     0.09600
S920        S  0.91330536  0.65494292  0.99041290    -0.25100
H921        H  0.90184824  0.64853257  0.94603626     0.19800
S922        S  0.84150902  0.59418160  0.94458865    -0.30800
H923        H  0.85285654  0.60081027  0.98891919     0.10200
C924        C  0.86995377  0.64235333  0.02635906     0.03400
C925        C  0.87039379  0.64181408  0.04919837    -0.13100
C926        C  0.87922114  0.62395009  0.06050138    -0.08800
C927        C  0.88812993  0.60643624  0.04836323     0.06800
C928        C  0.88735923  0.60689004  0.02560027    -0.13900
S929        S  0.85765943  0.66515149  0.01242475    -0.30800
H930        H  0.86338397  0.65518212  0.05829437     0.11100
S931        S  0.90167107  0.58351374  0.06069547    -0.27900
H932        H  0.89416355  0.59343784  0.01642344     0.08300
H933        H  0.83607359  0.60904507  0.92803859     0.26700
H934        H  0.85306683  0.67760347  0.03108529     0.21500
H935        H  0.91296600  0.59617732  0.07612089     0.26800
H936        H  0.91697412  0.64163387  0.00865287     0.15700
C937        C  0.22597961  0.61478490  0.88563259    -0.11600
C938        C  0.23770398  0.62995475  0.87330113     0.14900
C939        C  0.22639367  0.64544982  0.86063705     0.01800
C940        C  0.20359986  0.64505364  0.86022015    -0.16000
C941        C  0.19181803  0.62961093  0.87226644    -0.10800
C942        C  0.20322424  0.61462711  0.88551770     0.08500
C943        C  0.26168772  0.62865925  0.87362576     0.09600
S944        S  0.23991486  0.66564199  0.84410222    -0.25100
H945        H  0.19499081  0.65666090  0.85009796     0.19800
S946        S  0.18982194  0.59542466  0.90323397    -0.30800
H947        H  0.23466959  0.60307721  0.89557386     0.10200
C948        C  0.27400797  0.63971308  0.88948472     0.03400
C949        C  0.29674238  0.63765494  0.88945105    -0.13100
C950        C  0.30740176  0.62478023  0.87381500    -0.08800
C951        C  0.29483780  0.61317170  0.85837241     0.06800
C952        C  0.27217691  0.61545670  0.85829036    -0.13900
S953        S  0.26075088  0.65681281  0.90939577    -0.30800
H954        H  0.30628382  0.64643178  0.90139987     0.11100
S955        S  0.30655296  0.59435705  0.83912963    -0.27900
H956        H  0.26257847  0.60657011  0.84643084     0.08300
H957        H  0.17256083  0.60933240  0.90890295     0.26700
H958        H  0.27984859  0.66487166  0.91916854     0.21500
H959        H  0.32257737  0.58645480  0.85348231     0.26800
H960        H  0.25968865  0.66631282  0.85553530     0.15700
C961        C  0.02262833  0.61289630  0.85780395    -0.11600
C962        C  0.01223408  0.62618328  0.87317198     0.14900
C963        C  0.02482318  0.64003516  0.88651781     0.01800
C964        C  0.04743803  0.64060727  0.88391417    -0.16000
C965        C  0.05793912  0.62729005  0.86858105    -0.10800
C966        C  0.04527907  0.61343140  0.85522006     0.08500
C967        C  0.98818815  0.62608829  0.87408425     0.09600
S968        S  0.01305191  0.65746130  0.90702985    -0.25100
H969        H  0.05698631  0.65116659  0.89436231     0.19800
S970        S  0.05684224  0.59697327  0.83384718    -0.30800
H971        H  0.01294446  0.60247326  0.84734579     0.10200
C972        C  0.97583179  0.64204464  0.86322506     0.03400
C973        C  0.95303806  0.64154520  0.86470061    -0.13100
C974        C  0.94232264  0.62534051  0.87679580    -0.08800
C975        C  0.95490816  0.60957044  0.88796456     0.06800
C976        C  0.97762191  0.60990485  0.88616336    -0.13900
S977        S  0.98914431  0.66275747  0.84714626    -0.30800
H978        H  0.94349443  0.65359594  0.85608156     0.11100
S979        S  0.94316581  0.58933829  0.90568548    -0.27900
H980        H  0.98720177  0.59781396  0.89472762     0.08300
H981        H  0.07293685  0.61218236  0.82794272     0.26700
H982        H  0.97010715  0.67337038  0.84012020     0.21500
H983        H  0.92737168  0.60339718  0.91451975     0.26800
H984        H  0.99502013  0.64420651  0.91175780     0.15700
C985        C  0.27391991  0.64051900  0.12809038    -0.11600
C986        C  0.26336839  0.62746082  0.11261404     0.14900
C987        C  0.27592308  0.61562863  0.09742475     0.01800
C988        C  0.29868800  0.61663523  0.09844656    -0.16000
C989        C  0.30934130  0.62940758  0.11416816    -0.10800
C990        C  0.29668427  0.64182709  0.12888209     0.08500
C991        C  0.23929027  0.62620707  0.11302596     0.09600
S992        S  0.26394562  0.59846571  0.07678686    -0.25100
H993        H  0.30817776  0.60706785  0.08705787     0.19800
S994        S  0.30849232  0.66024543  0.14847568    -0.30800
H995        H  0.26431385  0.64984835  0.13958004     0.10200
C996        C  0.22841301  0.60890806  0.12339824     0.03400
C997        C  0.20555857  0.60831516  0.12334405    -0.13100
C998        C  0.19325172  0.62465525  0.11302813    -0.08800
C999        C  0.20438286  0.64171842  0.10216516     0.06800
C1000       C  0.22717288  0.64251877  0.10268770    -0.13900
S1001       S  0.24368989  0.58778855  0.13700401    -0.30800
H1002       H  0.19723196  0.59522622  0.13170270     0.11100
S1003       S  0.19069682  0.66228540  0.08633699    -0.27900
H1004       H  0.23559371  0.65564364  0.09442934     0.08300
H1005       H  0.32549636  0.66722880  0.13480424     0.26700
H1006       H  0.22566908  0.57592929  0.14469520     0.21500
H1007       H  0.17549864  0.64776702  0.07715830     0.26800
H1008       H  0.24454943  0.61031289  0.07428785     0.15700
C1009       C  0.02349058  0.60354424  0.11582503    -0.11600
C1010       C  0.01333563  0.62044868  0.12734136     0.14900
C1011       C  0.02626260  0.63664624  0.13728977     0.01800
C1012       C  0.04888141  0.63609548  0.13479129    -0.16000
C1013       C  0.05915738  0.61939321  0.12301637    -0.10800
C1014       C  0.04617899  0.60294115  0.11335577     0.08500
C1015       C  0.98924045  0.62135444  0.12784807     0.09600
S1016       S  0.01490092  0.65847122  0.15333972    -0.25100
H1017       H  0.05859584  0.64869416  0.14245248     0.19800
S1018       S  0.05730303  0.58160627  0.09655301    -0.30800
H1019       H  0.01359298  0.59115546  0.10805485     0.10200
C1020       C  0.97761313  0.63696749  0.11568631     0.03400
C1021       C  0.95481566  0.63757145  0.11702622    -0.13100
C1022       C  0.94335176  0.62272462  0.13009955    -0.08800
C1023       C  0.95513082  0.60735048  0.14256108     0.06800
C1024       C  0.97786747  0.60660973  0.14102456    -0.13900
S1025       S  0.99176470  0.65563113  0.09789054    -0.30800
H1026       H  0.94581887  0.64927928  0.10740191     0.11100
S1027       S  0.94225301  0.58902607  0.16152674    -0.27900
H1028       H  0.98683361  0.59481884  0.15060776     0.08300
H1029       H  0.07253181  0.59512173  0.08604737     0.26700
H1030       H  0.97322203  0.66660884  0.09013808     0.21500
H1031       H  0.92617262  0.60391050  0.16823053     0.26800
H1032       H  0.99666875  0.64685632  0.16084993     0.15700
C1033       C  0.13426580  0.63610748  0.97176783    -0.11600
C1034       C  0.12156515  0.61971680  0.98129463     0.14900
C1035       C  0.11009773  0.60503939  0.96780716     0.01800
C1036       C  0.11177866  0.60695245  0.94515781    -0.16000
C1037       C  0.12428629  0.62352204  0.93553600    -0.10800
C1038       C  0.13596577  0.63803919  0.94913181     0.08500
C1039       C  0.12094573  0.61831516  0.00533456     0.09600
S1040       S  0.09301079  0.58360991  0.97839290    -0.25100
H1041       H  0.10274815  0.59572987  0.93494754     0.19800
S1042       S  0.15409120  0.65870771  0.93879407    -0.30800
H1043       H  0.14328379  0.64723364  0.98209946     0.10200
C1044       C  0.13380185  0.60321184  0.01686013     0.03400
C1045       C  0.13344339  0.60327075  0.03973153    -0.13100
C1046       C  0.12045657  0.61815576  0.05128323    -0.08800
C1047       C  0.10681207  0.63254509  0.03954816     0.06800
C1048       C  0.10753794  0.63275689  0.01679314    -0.13900
S1049       S  0.15125486  0.58446493  0.00242763    -0.30800
H1050       H  0.14386184  0.59220554  0.04865566     0.11100
S1051       S  0.08750337  0.65042005  0.05256625    -0.27900
H1052       H  0.09734183  0.64407901  0.00789420     0.08300
H1053       H  0.16202117  0.64611362  0.92140529     0.26700
H1054       H  0.15898358  0.57328072  0.02084937     0.21500
H1055       H  0.08231985  0.63589012  0.06949930     0.26800
H1056       H  0.08751641  0.59390983  0.99805263     0.15700
C1057       C  0.63873621  0.26734158  0.12011547    -0.11600
C1058       C  0.62369509  0.25709762  0.13386751     0.14900
C1059       C  0.61087073  0.26985472  0.14805247     0.01800
C1060       C  0.61320223  0.29255256  0.14794219    -0.16000
C1061       C  0.62782737  0.30290736  0.13372382    -0.10800
C1062       C  0.64111719  0.29000533  0.12004583     0.08500
C1063       C  0.62228171  0.23306146  0.13333567     0.09600
S1064       S  0.59121254  0.25827711  0.16656226    -0.25100
H1065       H  0.60298242  0.30225517  0.15855876     0.19800
S1066       S  0.66205396  0.30133587  0.10287150    -0.30800
H1067       H  0.64891345  0.25753938  0.10954561     0.10200
C1068       C  0.60937719  0.22222771  0.11775156     0.03400
C1069       C  0.60902399  0.19937521  0.11733649    -0.13100
C1070       C  0.62145250  0.18717311  0.13213445    -0.08800
C1071       C  0.63387902  0.19814070  0.14813506     0.06800
C1072       C  0.63435398  0.22092744  0.14840122    -0.13900
S1073       S  0.59331762  0.23758114  0.09850253    -0.30800
H1074       H  0.59939499  0.19095683  0.10519009     0.11100
S1075       S  0.64871588  0.18401894  0.16916490    -0.27900
H1076       H  0.64404569  0.22929275  0.16055728     0.08300
H1077       H  0.66796640  0.31803510  0.11742375     0.26700
H1078       H  0.58382143  0.21958570  0.08796333     0.21500
H1079       H  0.63322658  0.16734625  0.17183679     0.26800
H1080       H  0.58653084  0.23948005  0.15440426     0.15700
C1081       C  0.60957989  0.22577231  0.88181964    -0.11600
C1082       C  0.62783371  0.23610368  0.87289876     0.14900
C1083       C  0.64579157  0.22347359  0.86619317     0.01800
C1084       C  0.64507925  0.20081297  0.86852960    -0.16000
C1085       C  0.62671462  0.19028441  0.87730499    -0.10800
C1086       C  0.60891565  0.20315762  0.88441849     0.08500
C1087       C  0.62813608  0.26016241  0.87230960     0.09600
S1088       S  0.67001171  0.23525530  0.85448133    -0.25100
H1089       H  0.65885997  0.19131113  0.86296479     0.19800
S1090       S  0.58541788  0.19211748  0.89809452    -0.30800
H1091       H  0.59598043  0.23552380  0.88742781     0.10200
C1092       C  0.61654897  0.27188717  0.85638338     0.03400
C1093       C  0.61641490  0.29472626  0.85715742    -0.13100
C1094       C  0.62759894  0.30606985  0.87360807    -0.08800
C1095       C  0.63983512  0.29417753  0.88908409     0.06800
C1096       C  0.63973485  0.27140678  0.88841772    -0.13900
S1097       S  0.60207892  0.25772587  0.83503887    -0.30800
H1098       H  0.60721734  0.30379105  0.84516209     0.11100
S1099       S  0.65662111  0.30699871  0.90948886    -0.27900
H1100       H  0.64887986  0.26233965  0.90047951     0.08300
H1101       H  0.59759137  0.17781290  0.91122568     0.26700
H1102       H  0.59462170  0.27636758  0.82402779     0.21500
H1103       H  0.66366415  0.32408492  0.89595426     0.26800
H1104       H  0.65976553  0.25342199  0.84508499     0.15700
C1105       C  0.61416947  0.10864237  0.97962390    -0.11600
C1106       C  0.62554858  0.12524040  0.99050972     0.14900
C1107       C  0.63737651  0.14067611  0.97820561     0.01800
C1108       C  0.63767893  0.13906136  0.95547926    -0.16000
C1109       C  0.62588292  0.12277314  0.94462478    -0.10800
C1110       C  0.61419375  0.10724762  0.95689028     0.08500
C1111       C  0.62536849  0.12544528  0.01466359     0.09600
S1112       S  0.65185596  0.16314552  0.99041620    -0.25100
H1113       H  0.64663308  0.15105586  0.94613084     0.19800
S1114       S  0.59973991  0.08482341  0.94457729    -0.30800
H1115       H  0.60541730  0.09649799  0.98896555     0.10200
C1116       C  0.60593913  0.12853212  0.02641607     0.03400
C1117       C  0.60629851  0.12745968  0.04919975    -0.13100
C1118       C  0.62579267  0.12392462  0.06080009    -0.08800
C1119       C  0.64546058  0.12185810  0.04879510     0.06800
C1120       C  0.64489580  0.12214743  0.02600493    -0.13900
S1121       S  0.58071701  0.13449477  0.01245306    -0.30800
H1122       H  0.59118489  0.12953373  0.05799509     0.11100
S1123       S  0.67185835  0.11881751  0.06118089    -0.27900
H1124       H  0.65989489  0.11996214  0.01697343     0.08300
H1125       H  0.61431806  0.08195271  0.92716330     0.26700
H1126       H  0.56779389  0.13747134  0.03111102     0.21500
H1127       H  0.67021163  0.13860621  0.07264874     0.26800
H1128       H  0.63776510  0.16569484  0.00826502     0.15700
C1129       C  0.60055326  0.77089765  0.88028417    -0.11600
C1130       C  0.62057621  0.76034084  0.88280159     0.14900
C1131       C  0.63977115  0.77278955  0.88449393     0.01800
C1132       C  0.63861116  0.79546572  0.88312628    -0.16000
C1133       C  0.61861399  0.80632465  0.88020812    -0.10800
C1134       C  0.59930087  0.79359970  0.87875768     0.08500
C1135       C  0.62120252  0.73633863  0.88149164     0.09600
S1136       S  0.66628540  0.76067959  0.88818287    -0.25100
H1137       H  0.65361789  0.80465291  0.88443393     0.19800
S1138       S  0.57258027  0.80480068  0.87422405    -0.30800
H1139       H  0.58582743  0.76127475  0.87872342     0.10200
C1140       C  0.61422213  0.72310437  0.89881523     0.03400
C1141       C  0.61556739  0.70038756  0.89679042    -0.13100
C1142       C  0.62394169  0.69056992  0.87782097    -0.08800
C1143       C  0.63113999  0.70413886  0.86060598     0.06800
C1144       C  0.62937418  0.72673180  0.86253097    -0.13900
S1145       S  0.60416972  0.73517255  0.92367343    -0.30800
H1146       H  0.60995326  0.69023697  0.91004702     0.11100
S1147       S  0.64397757  0.69396815  0.83633334    -0.27900
H1148       H  0.63494350  0.73700884  0.84931354     0.08300
H1149       H  0.57883944  0.81575961  0.85514361     0.26700
H1150       H  0.60024887  0.71555517  0.93481613     0.21500
H1151       H  0.65776637  0.67999457  0.84804984     0.26800
H1152       H  0.65905811  0.74226847  0.89969342     0.15700
C1153       C  0.60805192  0.02181656  0.86536922    -0.11600
C1154       C  0.62299271  0.01027126  0.87814609     0.14900
C1155       C  0.63893664  0.02171657  0.89010499     0.01800
C1156       C  0.63960557  0.04446087  0.88900199    -0.16000
C1157       C  0.62448302  0.05610914  0.87642939    -0.10800
C1158       C  0.60876366  0.04452690  0.86416149     0.08500
C1159       C  0.62226935  0.98626507  0.87758688     0.09600
S1160       S  0.65873116  0.00828492  0.90714238    -0.25100
H1161       H  0.65169230  0.05316020  0.89848769     0.19800
S1162       S  0.59000803  0.05756317  0.84571130    -0.30800
H1163       H  0.59610007  0.01299232  0.85581930     0.10200
C1164       C  0.60610470  0.97455716  0.88884467     0.03400
C1165       C  0.60574350  0.95177875  0.88741678    -0.13100
C1166       C  0.62127660  0.94050064  0.87498015    -0.08800
C1167       C  0.63721890  0.95240600  0.86339344     0.06800
C1168       C  0.63767115  0.97510673  0.86501917    -0.13900
S1169       S  0.58647329  0.98861317  0.90562915    -0.30800
H1170       H  0.59364623  0.94266662  0.89643587     0.11100
S1171       S  0.65675299  0.93976226  0.84550590    -0.27900
H1172       H  0.64986693  0.98421367  0.85609148     0.08300
H1173       H  0.60501371  0.07325185  0.83836315     0.26700
H1174       H  0.57482021  0.97004551  0.91226914     0.21500
H1175       H  0.64233053  0.92372539  0.83774533     0.26800
H1176       H  0.64579091  0.99015223  0.91239112     0.15700
C1177       C  0.60355133  0.76721559  0.13409876    -0.11600
C1178       C  0.62098587  0.75705512  0.12351210     0.14900
C1179       C  0.63722185  0.76991897  0.11359528     0.01800
C1180       C  0.63593224  0.79263874  0.11497832    -0.16000
C1181       C  0.61858881  0.80297466  0.12579870    -0.10800
C1182       C  0.60228602  0.78990687  0.13556583     0.08500
C1183       C  0.62209166  0.73302544  0.12394003     0.09600
S1184       S  0.66007905  0.75841282  0.09916758    -0.25100
H1185       H  0.64849689  0.80233205  0.10726740     0.19800
S1186       S  0.58046609  0.80097716  0.15162159    -0.30800
H1187       H  0.59120369  0.75733056  0.14193234     0.10200
C1188       C  0.63509491  0.72193291  0.13923011     0.03400
C1189       C  0.63516035  0.69907510  0.13941762    -0.13100
C1190       C  0.62243545  0.68711401  0.12461739    -0.08800
C1191       C  0.60898875  0.69840142  0.10969817     0.06800
C1192       C  0.60912125  0.72117014  0.10940733    -0.13900
S1193       S  0.65141227  0.73692170  0.15859528    -0.30800
H1194       H  0.64539381  0.69046826  0.15090119     0.11100
S1195       S  0.59047012  0.68481289  0.09139339    -0.27900
H1196       H  0.59877884  0.72976000  0.09797944     0.08300
H1197       H  0.59458850  0.81491900  0.16300333     0.26700
H1198       H  0.65989329  0.71872962  0.16961339     0.21500
H1199       H  0.58448273  0.66846248  0.10627846     0.26800
H1200       H  0.64989305  0.73888713  0.09295736     0.15700
C1201       C  0.63742022  0.01778250  0.11804471    -0.11600
C1202       C  0.61966529  0.00707004  0.12753211     0.14900
C1203       C  0.60240713  0.01941935  0.13632381     0.01800
C1204       C  0.60316606  0.04216204  0.13517543    -0.16000
C1205       C  0.62097337  0.05304183  0.12576082    -0.10800
C1206       C  0.63816506  0.04053770  0.11680317     0.08500
C1207       C  0.61925405  0.98300972  0.12733997     0.09600
S1208       S  0.57895387  0.00719533  0.14914745    -0.25100
H1209       H  0.58991030  0.05145795  0.14218351     0.19800
S1210       S  0.66089155  0.05242034  0.10253879    -0.30800
H1211       H  0.65053827  0.00829070  0.11102920     0.10200
C1212       C  0.60678059  0.97140109  0.11197051     0.03400
C1213       C  0.60624435  0.94858350  0.11286172    -0.13100
C1214       C  0.61821913  0.93718878  0.12862853    -0.08800
C1215       C  0.63064558  0.94890470  0.14405797     0.06800
C1216       C  0.63123877  0.97166250  0.14309314    -0.13900
S1217       S  0.59197999  0.98564566  0.09093336    -0.30800
H1218       H  0.59683383  0.93955809  0.10100685     0.11100
S1219       S  0.64526789  0.93583728  0.16591917    -0.27900
H1220       H  0.64066406  0.98063813  0.15502167     0.08300
H1221       H  0.64835068  0.06834463  0.09185124     0.26700
H1222       H  0.58338808  0.96707620  0.08061153     0.21500
H1223       H  0.63006518  0.91897973  0.16900172     0.26800
H1224       H  0.58935674  0.98818336  0.15644015     0.15700
C1225       C  0.63233004  0.88789148  0.97914854    -0.11600
C1226       C  0.61748584  0.87429509  0.98992839     0.14900
C1227       C  0.60239459  0.86205329  0.97763879     0.01800
C1228       C  0.60251591  0.86359351  0.95492154    -0.16000
C1229       C  0.61777145  0.87669178  0.94406006    -0.10800
C1230       C  0.63256837  0.88932140  0.95641270     0.08500
C1231       C  0.61773778  0.87367153  0.01400491     0.09600
S1232       S  0.58301751  0.84372955  0.98993154    -0.25100
H1233       H  0.59114543  0.85380462  0.94560968     0.19800
S1234       S  0.65152773  0.90815963  0.94424254    -0.30800
H1235       H  0.64365971  0.89762955  0.98856301     0.10200
C1236       C  0.63461819  0.86324200  0.02549159     0.03400
C1237       C  0.63420662  0.86300413  0.04832425    -0.13100
C1238       C  0.61718499  0.87292468  0.05997631    -0.08800
C1239       C  0.60044288  0.88367676  0.04827677     0.06800
C1240       C  0.60080603  0.88370734  0.02550557    -0.13900
S1241       S  0.65624950  0.84954689  0.01102282    -0.30800
H1242       H  0.64701462  0.85471314  0.05714697     0.11100
S1243       S  0.57875466  0.89858536  0.06124874    -0.27900
H1244       H  0.58796498  0.89194402  0.01663410     0.08300
H1245       H  0.63759552  0.91448714  0.92718869     0.26700
H1246       H  0.66735658  0.84173342  0.02945653     0.21500
H1247       H  0.59223668  0.90776862  0.07731921     0.26800
H1248       H  0.59614588  0.83779255  0.00771374     0.15700
C1249       C  0.27160866  0.36282927  0.88001923    -0.11600
C1250       C  0.26050132  0.37720816  0.86624747     0.14900
C1251       C  0.27246080  0.39092256  0.85220214     0.01800
C1252       C  0.29526363  0.39014848  0.85249595    -0.16000
C1253       C  0.30640358  0.37582542  0.86640649    -0.10800
C1254       C  0.29431688  0.36172833  0.88001300     0.08500
C1255       C  0.23647300  0.37770075  0.86740436     0.09600
S1256       S  0.25962545  0.40978776  0.83372058    -0.25100
H1257       H  0.30438327  0.40096572  0.84195708     0.19800
S1258       S  0.30678611  0.34134544  0.89706516    -0.30800
H1259       H  0.26244783  0.35217001  0.89069068     0.10200
C1260       C  0.22384896  0.36017709  0.85967861     0.03400
C1261       C  0.20117538  0.36081006  0.86201677    -0.13100
C1262       C  0.19077755  0.37854080  0.87210362    -0.08800
C1263       C  0.20364255  0.39584994  0.88031624     0.06800
C1264       C  0.22625300  0.39538067  0.87755366    -0.13900
S1265       S  0.23657259  0.33727947  0.84628209    -0.30800
H1266       H  0.19146649  0.34757743  0.85556507     0.11100
S1267       S  0.19250876  0.41834547  0.89551773    -0.27900
H1268       H  0.23606183  0.40860199  0.88394067     0.08300
H1269       H  0.32314362  0.33584672  0.88201428     0.26700
H1270       H  0.21753324  0.32487207  0.84333968     0.21500
H1271       H  0.17760031  0.40547358  0.90723326     0.26800
H1272       H  0.24060450  0.39750149  0.83032103     0.15700
C1273       C  0.27766251  0.39371113  0.13597108    -0.11600
C1274       C  0.26523708  0.38330534  0.11991759     0.14900
C1275       C  0.27591108  0.37247453  0.10265280     0.01800
C1276       C  0.29868499  0.37154629  0.10235052    -0.16000
C1277       C  0.31120488  0.38160661  0.11864496    -0.10800
C1278       C  0.30043057  0.39327120  0.13538066     0.08500
C1279       C  0.24120972  0.38398981  0.12171701     0.09600
S1280       S  0.26150174  0.35940819  0.08060298    -0.25100
H1281       H  0.30668819  0.36275332  0.08931737     0.19800
S1282       S  0.31462673  0.40875311  0.15591470    -0.30800
H1283       H  0.26952063  0.40240016  0.14899369     0.10200
C1284       C  0.22909226  0.36536645  0.12724774     0.03400
C1285       C  0.20628825  0.36647791  0.12753648    -0.13100
C1286       C  0.19512836  0.38595519  0.12269338    -0.08800
C1287       C  0.20762472  0.40489084  0.11806050     0.06800
C1288       C  0.23039391  0.40364704  0.11773221    -0.13900
S1289       S  0.24272298  0.34028529  0.13437662    -0.30800
H1290       H  0.19713034  0.35199718  0.13164283     0.11100
S1291       S  0.19596875  0.43110351  0.11202777    -0.27900
H1292       H  0.23980804  0.41805420  0.11380016     0.08300
H1293       H  0.33042258  0.41703247  0.14152967     0.26700
H1294       H  0.22387798  0.32808466  0.13891364     0.21500
H1295       H  0.18253525  0.42300045  0.09543382     0.26800
H1296       H  0.24293769  0.37275897  0.08120440     0.15700
C1297       C  0.13742382  0.36631296  0.97375592    -0.11600
C1298       C  0.12255009  0.37955077  0.98491387     0.14900
C1299       C  0.10800162  0.39273076  0.97294645     0.01800
C1300       C  0.10872439  0.39245752  0.95015089    -0.16000
C1301       C  0.12348725  0.37907589  0.93895926    -0.10800
C1302       C  0.13823144  0.36612657  0.95098805     0.08500
C1303       C  0.12365527  0.38028925  0.00897662     0.09600
S1304       S  0.08824474  0.41027458  0.98576649    -0.25100
H1305       H  0.09741442  0.40249664  0.94105896     0.19800
S1306       S  0.15934165  0.35014078  0.93831101    -0.30800
H1307       H  0.14893018  0.35654286  0.98289657     0.10200
C1308       C  0.11493732  0.36347524  0.02188327     0.03400
C1309       C  0.11688178  0.36461242  0.04462278    -0.13100
C1310       C  0.12745556  0.38221969  0.05480555    -0.08800
C1311       C  0.13651994  0.39883494  0.04163972     0.06800
C1312       C  0.13426211  0.39782889  0.01899108    -0.13900
S1313       S  0.10084139  0.34088241  0.00937878    -0.30800
H1314       H  0.10983406  0.35186669  0.05453959     0.11100
S1315       S  0.15245862  0.42087142  0.05254996    -0.27900
H1316       H  0.14132863  0.41054955  0.00901233     0.08300
H1317       H  0.16358974  0.36511610  0.92152105     0.26700
H1318       H  0.09532464  0.33004546  0.02877491     0.21500
H1319       H  0.16388178  0.40714929  0.06685781     0.26800
H1320       H  0.08558573  0.39785000  0.00477979     0.15700
C1321       C  0.77142185  0.35237241  0.87432443    -0.11600
C1322       C  0.76115477  0.37212316  0.87929781     0.14900
C1323       C  0.77391017  0.39023795  0.88532926     0.01800
C1324       C  0.79658315  0.38831166  0.88589540    -0.16000
C1325       C  0.80712320  0.36869137  0.88039859    -0.10800
C1326       C  0.79411876  0.35036021  0.87496493     0.08500
C1327       C  0.73709692  0.37313749  0.87860878     0.09600
S1328       S  0.76231637  0.41636123  0.89216589    -0.25100
H1329       H  0.80606736  0.40250247  0.89038939     0.19800
S1330       S  0.80518045  0.32411003  0.86809849    -0.30800
H1331       H  0.76160465  0.33835027  0.86997786     0.10200
C1332       C  0.72567064  0.37258825  0.85876337     0.03400
C1333       C  0.70285010  0.37347423  0.85888663    -0.13100
C1334       C  0.69102144  0.37509295  0.87847872    -0.08800
C1335       C  0.70284018  0.37618248  0.89838073     0.06800
C1336       C  0.72557608  0.37486913  0.89815827    -0.13900
S1337       S  0.74020103  0.37121098  0.83322903    -0.30800
H1338       H  0.69422142  0.37274707  0.84354737     0.11100
S1339       S  0.69039305  0.37952496  0.92471446    -0.27900
H1340       H  0.73445803  0.37548580  0.91340112     0.08300
H1341       H  0.81491173  0.32143883  0.88867848     0.26700
H1342       H  0.72181791  0.37133123  0.81956490     0.21500
H1343       H  0.67840137  0.39794511  0.91836498     0.26800
H1344       H  0.74420086  0.41482685  0.87825461     0.15700
C1345       C  0.97783155  0.35737851  0.88132445    -0.11600
C1346       C  0.98710432  0.37516854  0.87047699     0.14900
C1347       C  0.97346292  0.39128579  0.86147258     0.01800
C1348       C  0.95090199  0.38946557  0.86389428    -0.16000
C1349       C  0.94146365  0.37173298  0.87489411    -0.10800
C1350       C  0.95526293  0.35561691  0.88391561     0.08500
C1351       C  0.01107325  0.37692778  0.86988169     0.09600
S1352       S  0.98377418  0.41463203  0.84691304    -0.25100
H1353       H  0.94060374  0.40190529  0.85679027     0.19800
S1354       S  0.94538809  0.33322125  0.90008259    -0.30800
H1355       H  0.98834259  0.34515031  0.88849624     0.10200
C1356       C  0.02236165  0.39095722  0.88411712     0.03400
C1357       C  0.04517631  0.39157184  0.88350332    -0.13100
C1358       C  0.05687367  0.37829576  0.86905491    -0.08800
C1359       C  0.04544562  0.36476921  0.85434048     0.06800
C1360       C  0.02270180  0.36397457  0.85514947    -0.13900
S1361       S  0.00773267  0.40748413  0.90355278    -0.30800
H1362       H  0.05398852  0.40196281  0.89470872     0.11100
S1363       S  0.05886887  0.34886045  0.83363355    -0.27900
H1364       H  0.01395643  0.35342273  0.84401768     0.08300
H1365       H  0.93002414  0.34581656  0.91150044     0.26700
H1366       H  0.02610143  0.41698854  0.91341943     0.21500
H1367       H  0.07559607  0.36403213  0.82974138     0.26800
H1368       H  0.00299780  0.40481433  0.83935496     0.15700
C1369       C  0.77647692  0.35955692  0.14438926    -0.11600
C1370       C  0.76462227  0.37490122  0.13238039     0.14900
C1371       C  0.77590638  0.39054867  0.11984355     0.01800
C1372       C  0.79868516  0.38984788  0.11883897    -0.16000
C1373       C  0.81057848  0.37415190  0.13046562    -0.10800
C1374       C  0.79924970  0.35923869  0.14387193     0.08500
C1375       C  0.74054345  0.37367141  0.13284718     0.09600
S1376       S  0.76224605  0.41170072  0.10470378    -0.25100
H1377       H  0.80719552  0.40161745  0.10882292     0.19800
S1378       S  0.81284842  0.34015676  0.16154120    -0.30800
H1379       H  0.76788920  0.34780278  0.15436195     0.10200
C1380       C  0.72868284  0.36600540  0.11481218     0.03400
C1381       C  0.70592399  0.36505156  0.11592528    -0.13100
C1382       C  0.69452323  0.37140407  0.13479725    -0.08800
C1383       C  0.70668227  0.37856316  0.15310029     0.06800
C1384       C  0.72944859  0.37970795  0.15184607    -0.13900
S1385       S  0.74254773  0.35696691  0.09048814    -0.30800
H1386       H  0.69697363  0.35918084  0.10192471     0.11100
S1387       S  0.69435035  0.38720757  0.17821510    -0.27900
H1388       H  0.73863669  0.38542017  0.16579580     0.08300
H1389       H  0.82942477  0.35470272  0.16779909     0.26700
H1390       H  0.72382479  0.35187810  0.07830333     0.21500
H1391       H  0.68537010  0.36653109  0.18236673     0.26800
H1392       H  0.74381923  0.41310878  0.11818348     0.15700
C1393       C  0.98087858  0.35961297  0.13398074    -0.11600
C1394       C  0.99073817  0.37687880  0.12280116     0.14900
C1395       C  0.97755035  0.39294095  0.11300722     0.01800
C1396       C  0.95490723  0.39177573  0.11521825    -0.16000
C1397       C  0.94490352  0.37463799  0.12662597    -0.10800
C1398       C  0.95821430  0.35843937  0.13620738     0.08500
C1399       C  0.01479702  0.37824551  0.12253627     0.09600
S1400       S  0.98859319  0.41530791  0.09748922    -0.25100
H1401       H  0.94498414  0.40419115  0.10756014     0.19800
S1402       S  0.94748270  0.33684972  0.15282872    -0.30800
H1403       H  0.99098191  0.34737495  0.14169640     0.10200
C1404       C  0.02603916  0.39362152  0.13536210     0.03400
C1405       C  0.04882273  0.39474219  0.13418786    -0.13100
C1406       C  0.06064530  0.38050280  0.12077199    -0.08800
C1407       C  0.04926570  0.36516976  0.10786152     0.06800
C1408       C  0.02653334  0.36403721  0.10909368    -0.13900
S1409       S  0.01140890  0.41131387  0.15374954    -0.30800
H1410       H  0.05751600  0.40643552  0.14411322     0.11100
S1411       S  0.06266157  0.34739368  0.08871899    -0.27900
H1412       H  0.01785812  0.35234181  0.09910834     0.08300
H1413       H  0.93299338  0.35074869  0.16379848     0.26700
H1414       H  0.02972958  0.42200661  0.16241978     0.21500
H1415       H  0.07844544  0.36273597  0.08236604     0.26800
H1416       H  0.00732895  0.40439448  0.09018959     0.15700
C1417       C  0.86662750  0.35607820  0.98059078    -0.11600
C1418       C  0.87865427  0.37252422  0.99088687     0.14900
C1419       C  0.88969660  0.38812124  0.97813013     0.01800
C1420       C  0.88816170  0.38714190  0.95541825    -0.16000
C1421       C  0.87611746  0.37069304  0.94500551    -0.10800
C1422       C  0.86496519  0.35516463  0.95787981     0.08500
C1423       C  0.87862586  0.37345277  0.01494071     0.09600
S1424       S  0.90584530  0.40973985  0.98980400    -0.25100
H1425       H  0.89678813  0.39913390  0.94577222     0.19800
S1426       S  0.84721925  0.33470903  0.94650105    -0.30800
H1427       H  0.85789052  0.34427539  0.99037495     0.10200
C1428       C  0.86538788  0.38833485  0.02632817     0.03400
C1429       C  0.86596616  0.38871503  0.04916721    -0.13100
C1430       C  0.87939202  0.37435589  0.06082528    -0.08800
C1431       C  0.89295595  0.35974503  0.04926344     0.06800
C1432       C  0.89215627  0.35922245  0.02651727    -0.13900
S1433       S  0.84731392  0.40636985  0.01175267    -0.30800
H1434       H  0.85554745  0.39984790  0.05801016     0.11100
S1435       S  0.91236564  0.34210673  0.06247461    -0.27900
H1436       H  0.90252489  0.34797775  0.01771934     0.08300
H1437       H  0.83845233  0.34840258  0.93036073     0.26700
H1438       H  0.83832238  0.41663147  0.03014019     0.21500
H1439       H  0.91806821  0.35714816  0.07880172     0.26800
H1440       H  0.91187331  0.39863713  0.00886232     0.15700
C1441       C  0.39290679  0.72823600  0.13452067    -0.11600
C1442       C  0.38294648  0.74015228  0.11783256     0.14900
C1443       C  0.37208499  0.72900874  0.10090797     0.01800
C1444       C  0.37098567  0.70624916  0.10134913    -0.16000
C1445       C  0.38072954  0.69419842  0.11817947    -0.10800
C1446       C  0.39218467  0.70545665  0.13475235     0.08500
C1447       C  0.38354324  0.76418151  0.11897749     0.09600
S1448       S  0.35882854  0.74279940  0.07859902    -0.25100
H1449       H  0.36225430  0.69788389  0.08848778     0.19800
S1450       S  0.40702740  0.69185237  0.15609421    -0.30800
H1451       H  0.40143864  0.73678152  0.14740314     0.10200
C1452       C  0.36582150  0.77605749  0.12725645     0.03400
C1453       C  0.36678641  0.79885593  0.12763420    -0.13100
C1454       C  0.38527283  0.81017321  0.12014505    -0.08800
C1455       C  0.40325277  0.79799566  0.11227756     0.06800
C1456       C  0.40211690  0.77522211  0.11169410    -0.13900
S1457       S  0.34205136  0.76210459  0.13753655    -0.30800
H1458       H  0.35306731  0.80790503  0.13398352     0.11100
S1459       S  0.42765733  0.81036731  0.10181627    -0.27900
H1460       H  0.41576362  0.76599850  0.10536643     0.08300
H1461       H  0.41564322  0.67565073  0.14236481     0.26700
H1462       H  0.33035057  0.78080184  0.14369166     0.21500
H1463       H  0.43381684  0.81849666  0.12234086     0.26800
H1464       H  0.37171696  0.76169267  0.07882846     0.15700
C1465       C  0.39046648  0.77295774  0.88378958    -0.11600
C1466       C  0.37357893  0.76233569  0.87270533     0.14900
C1467       C  0.35678610  0.77476137  0.86313456     0.01800
C1468       C  0.35742483  0.79750328  0.86459407    -0.16000
C1469       C  0.37460533  0.80825537  0.87524924    -0.10800
C1470       C  0.39100479  0.79567223  0.88545738     0.08500
C1471       C  0.37344927  0.73826307  0.87230142     0.09600
S1472       S  0.33425249  0.76262385  0.84867557    -0.25100
H1473       H  0.34468686  0.80689266  0.85679167     0.19800
S1474       S  0.41232053  0.80741805  0.90189483    -0.30800
H1475       H  0.40306807  0.76341101  0.89163323     0.10200
C1476       C  0.38768876  0.72646698  0.85872521     0.03400
C1477       C  0.38704377  0.70363125  0.85891796    -0.13100
C1478       C  0.37255404  0.69238836  0.87255095    -0.08800
C1479       C  0.35797765  0.70431321  0.88576569     0.06800
C1480       C  0.35875506  0.72707530  0.88568633    -0.13900
S1481       S  0.40639089  0.74052004  0.84091419    -0.30800
H1482       H  0.39805168  0.69447368  0.84865142     0.11100
S1483       S  0.33732277  0.69148285  0.90219326    -0.27900
H1484       H  0.34760862  0.73617866  0.89589292     0.08300
H1485       H  0.39892332  0.82347405  0.91127848     0.26700
H1486       H  0.41619217  0.72183137  0.83200932     0.21500
H1487       H  0.33293731  0.67472183  0.88720785     0.26800
H1488       H  0.34550654  0.74412707  0.84127814     0.15700
C1489       C  0.36377605  0.87027957  0.97633343    -0.11600
C1490       C  0.38026869  0.88282463  0.98597743     0.14900
C1491       C  0.39592002  0.89303113  0.97261717     0.01800
C1492       C  0.39492420  0.89022101  0.95004333    -0.16000
C1493       C  0.37835577  0.87776793  0.94032623    -0.10800
C1494       C  0.36270410  0.86753239  0.95375373     0.08500
C1495       C  0.38163117  0.88343092  0.01003184     0.09600
S1496       S  0.41731216  0.91009255  0.98332898    -0.25100
H1497       H  0.40690929  0.89830443  0.93992705     0.19800
S1498       S  0.34176861  0.84977772  0.94330464    -0.30800
H1499       H  0.35200107  0.86203593  0.98656885     0.10200
C1500       C  0.36536464  0.89342819  0.02272528     0.03400
C1501       C  0.36645246  0.89202115  0.04549079    -0.13100
C1502       C  0.38353268  0.88086785  0.05589432    -0.08800
C1503       C  0.39994372  0.87107160  0.04300911     0.06800
C1504       C  0.39889768  0.87264132  0.02032311    -0.13900
S1505       S  0.34353307  0.90842538  0.00992828    -0.30800
H1506       H  0.35400953  0.89978293  0.05526260     0.11100
S1507       S  0.42181608  0.85510727  0.05428399    -0.27900
H1508       H  0.41125961  0.86471721  0.01053867     0.08300
H1509       H  0.35504911  0.84018619  0.92728871     0.26700
H1510       H  0.33246181  0.91407388  0.02915301     0.21500
H1511       H  0.40845093  0.84423919  0.06937307     0.26800
H1512       H  0.40569124  0.91741418  0.00163349     0.15700
C1513       C  0.39391486  0.22891546  0.87021888    -0.11600
C1514       C  0.37341326  0.23811976  0.86630637     0.14900
C1515       C  0.35523035  0.22429330  0.86385639     0.01800
C1516       C  0.35775033  0.20180614  0.86663975    -0.16000
C1517       C  0.37822655  0.19239908  0.87111195    -0.10800
C1518       C  0.39657952  0.20641234  0.87267679     0.08500
C1519       C  0.37170089  0.26220849  0.86560238     0.09600
S1520       S  0.32848009  0.23420700  0.85677798    -0.25100
H1521       H  0.34350041  0.19155563  0.86484620     0.19800
S1522       S  0.42383613  0.19709491  0.87814959    -0.30800
H1523       H  0.40796556  0.23948138  0.87190962     0.10200
C1524       C  0.36107767  0.27403534  0.88217554     0.03400
C1525       C  0.36128143  0.29687613  0.88159662    -0.13100
C1526       C  0.37226879  0.30826096  0.86506221    -0.08800
C1527       C  0.38318653  0.29627515  0.84867379     0.06800
C1528       C  0.38248574  0.27349601  0.84896292    -0.13900
S1529       S  0.34824381  0.26015138  0.90471003    -0.30800
H1530       H  0.35304055  0.30594220  0.89426212     0.11100
S1531       S  0.39967617  0.30885098  0.82792650    -0.27900
H1532       H  0.39107924  0.26442945  0.83650108     0.08300
H1533       H  0.41773818  0.18585188  0.89712188     0.26700
H1534       H  0.34079111  0.27885766  0.91562297     0.21500
H1535       H  0.40942316  0.32394921  0.84217193     0.26800
H1536       H  0.33554099  0.25291769  0.84566144     0.15700
C1537       C  0.36462536  0.97859266  0.86645159    -0.11600
C1538       C  0.38206795  0.98824891  0.87756295     0.14900
C1539       C  0.39820778  0.97488276  0.88700327     0.01800
C1540       C  0.39687225  0.95227021  0.88454281    -0.16000
C1541       C  0.37942284  0.94249787  0.87337357    -0.10800
C1542       C  0.36323143  0.95599087  0.86406898     0.08500
C1543       C  0.38304197  0.01229867  0.87854375     0.09600
S1544       S  0.42062711  0.98557374  0.90273010    -0.25100
H1545       H  0.40927067  0.94218293  0.89201578     0.19800
S1546       S  0.34124479  0.94556308  0.84774617    -0.30800
H1547       H  0.35229647  0.98882285  0.85904641     0.10200
C1548       C  0.39875423  0.02423023  0.86681608     0.03400
C1549       C  0.39860541  0.04704870  0.86786653    -0.13100
C1550       C  0.38281316  0.05820122  0.88007346    -0.08800
C1551       C  0.36729904  0.04610769  0.89206954     0.06800
C1552       C  0.36744740  0.02337007  0.89096362    -0.13900
S1553       S  0.41820566  0.01049169  0.84955420    -0.30800
H1554       H  0.41033240  0.05628324  0.85849401     0.11100
S1555       S  0.34738162  0.05858377  0.90965453    -0.27900
H1556       H  0.35544380  0.01417451  0.90006050     0.08300
H1557       H  0.35488789  0.93104908  0.83649854     0.26700
H1558       H  0.42951154  0.02921030  0.84274486     0.21500
H1559       H  0.36136938  0.07518813  0.91699066     0.26800
H1560       H  0.40979702  0.00426203  0.91028261     0.15700
C1561       C  0.35588169  0.22875876  0.11277206    -0.11600
C1562       C  0.37413369  0.24027093  0.12010219     0.14900
C1563       C  0.39180833  0.22877915  0.12920085     0.01800
C1564       C  0.39110743  0.20601691  0.13016407    -0.16000
C1565       C  0.37277721  0.19427512  0.12293351    -0.10800
C1566       C  0.35486769  0.20605234  0.11424769     0.08500
C1567       C  0.37409113  0.26427286  0.11821692     0.09600
S1568       S  0.41563911  0.24219350  0.13998182    -0.25100
H1569       H  0.40490599  0.19745725  0.13705879     0.19800
S1570       S  0.33051603  0.19333793  0.10401078    -0.30800
H1571       H  0.34225914  0.23759321  0.10584833     0.10200
C1572       C  0.38665338  0.27515707  0.10241192     0.03400
C1573       C  0.38660623  0.29801182  0.10182359    -0.13100
C1574       C  0.37411443  0.31013913  0.11665134    -0.08800
C1575       C  0.36066820  0.29906465  0.13169956     0.06800
C1576       C  0.36100100  0.27631905  0.13247711    -0.13900
S1577       S  0.40256918  0.25992523  0.08293983    -0.30800
H1578       H  0.39666104  0.30648967  0.09009288     0.11100
S1579       S  0.34207022  0.31292672  0.14969618    -0.27900
H1580       H  0.35091074  0.26789832  0.14424763     0.08300
H1581       H  0.32412237  0.18610327  0.12478064     0.26700
H1582       H  0.41091570  0.27798000  0.07159450     0.21500
H1583       H  0.33656054  0.32940302  0.13476838     0.26800
H1584       H  0.40500250  0.26125854  0.14683671     0.15700
C1585       C  0.36111722  0.02437953  0.11797614    -0.11600
C1586       C  0.37669946  0.01406757  0.13105156     0.14900
C1587       C  0.39177406  0.02679029  0.14284907     0.01800
C1588       C  0.39109269  0.04951182  0.14111145    -0.16000
C1589       C  0.37550171  0.05992543  0.12799969    -0.10800
C1590       C  0.36050690  0.04706394  0.11609353     0.08500
C1591       C  0.37800107  0.99004783  0.13036490     0.09600
S1592       S  0.41226734  0.01502397  0.16028882    -0.25100
H1593       H  0.40262719  0.05915513  0.15036889     0.19800
S1594       S  0.34121910  0.05838238  0.09707557    -0.30800
H1595       H  0.34984761  0.01460190  0.10852590     0.10200
C1596       C  0.36281394  0.97685151  0.14134917     0.03400
C1597       C  0.36407892  0.95412575  0.13922729    -0.13100
C1598       C  0.38025998  0.94435420  0.12632256    -0.08800
C1599       C  0.39527680  0.95776843  0.11512688     0.06800
C1600       C  0.39415026  0.98037897  0.11751329    -0.13900
S1601       S  0.34219912  0.98898526  0.15843722    -0.30800
H1602       H  0.35261780  0.94390103  0.14787566     0.11100
S1603       S  0.41539776  0.94722718  0.09654339    -0.27900
H1604       H  0.40557096  0.99060004  0.10876589     0.08300
H1605       H  0.35558859  0.07426577  0.08892006     0.26700
H1606       H  0.33273181  0.96938006  0.16555205     0.21500
H1607       H  0.40170046  0.93111022  0.08768621     0.26800
H1608       H  0.40061827  0.99603559  0.16553810     0.15700
C1609       C  0.36303253  0.13493179  0.02346209    -0.11600
C1610       C  0.38017735  0.12392856  0.01322331     0.14900
C1611       C  0.39654949  0.11416753  0.02608320     0.01800
C1612       C  0.39530383  0.11553375  0.04883298    -0.16000
C1613       C  0.37786886  0.12619889  0.05914801    -0.10800
C1614       C  0.36180314  0.13638252  0.04612173     0.08500
C1615       C  0.38084432  0.12395408  0.98911661     0.09600
S1616       S  0.41916415  0.09945896  0.01449642    -0.25100
H1617       H  0.40777585  0.10771210  0.05855625     0.19800
S1618       S  0.34007295  0.15264706  0.05722120    -0.30800
H1619       H  0.35073266  0.14291464  0.01363671     0.10200
C1620       C  0.36516669  0.11261144  0.97676722     0.03400
C1621       C  0.36530867  0.11441296  0.95401092    -0.13100
C1622       C  0.38093595  0.12719271  0.94323576    -0.08800
C1623       C  0.39660335  0.13859935  0.95575123     0.06800
C1624       C  0.39649385  0.13669426  0.97846406    -0.13900
S1625       S  0.34534396  0.09535421  0.98998517    -0.30800
H1626       H  0.35340621  0.10550692  0.94452861     0.11100
S1627       S  0.41631320  0.15682152  0.94390984    -0.27900
H1628       H  0.40830686  0.14572910  0.98798223     0.08300
H1629       H  0.35336978  0.16265684  0.07297434     0.26700
H1630       H  0.33543076  0.08742170  0.97091628     0.21500
H1631       H  0.40183058  0.16525840  0.92829874     0.26800
H1632       H  0.40815509  0.09228781  0.99574755     0.15700
C1633       C  0.88836964  0.02153775  0.61199065    -0.11600
C1634       C  0.87667161  0.00995679  0.62778502     0.14900
C1635       C  0.86448950  0.02146808  0.64349239     0.01800
C1636       C  0.86435105  0.04425295  0.64311897    -0.16000
C1637       C  0.87584628  0.05592190  0.62716152    -0.10800
C1638       C  0.88827740  0.04431377  0.61161819     0.08500
C1639       C  0.87814448  0.98592235  0.62788410     0.09600
S1640       S  0.84862974  0.00806085  0.66425295    -0.25100
H1641       H  0.85477386  0.05293722  0.65512397     0.19800
S1642       S  0.90536232  0.05748446  0.59172196    -0.30800
H1643       H  0.89804436  0.01272802  0.60015148     0.10200
C1644       C  0.86767258  0.97330348  0.61185781     0.03400
C1645       C  0.86954353  0.95057269  0.61247778    -0.13100
C1646       C  0.88157400  0.94011586  0.62889521    -0.08800
C1647       C  0.89241503  0.95292495  0.64472179     0.06800
C1648       C  0.89038602  0.97562156  0.64415103    -0.13900
S1649       S  0.85127901  0.98612316  0.59107721    -0.30800
H1650       H  0.86120862  0.94085642  0.60035002     0.11100
S1651       S  0.90978386  0.94153779  0.66546642    -0.27900
H1652       H  0.89867970  0.98539461  0.65629320     0.08300
H1653       H  0.91273197  0.07388019  0.60595467     0.26700
H1654       H  0.84359005  0.96684516  0.58136424     0.21500
H1655       H  0.91871265  0.92528337  0.65203888     0.26800
H1656       H  0.84373887  0.98929460  0.65208324     0.15700
C1657       C  0.97398035  0.13923498  0.61321972    -0.11600
C1658       C  0.98551831  0.12548570  0.62735648     0.14900
C1659       C  0.97383104  0.11190319  0.64180102     0.01800
C1660       C  0.95106772  0.11246183  0.64184180    -0.16000
C1661       C  0.93954475  0.12579875  0.62732855    -0.10800
C1662       C  0.95120893  0.13952171  0.61300804     0.08500
C1663       C  0.00965938  0.12638340  0.62733411     0.09600
S1664       S  0.98690703  0.09305461  0.66013668    -0.25100
H1665       H  0.94225210  0.10183269  0.65282524     0.19800
S1666       S  0.93808741  0.15845024  0.59480615    -0.30800
H1667       H  0.98282378  0.15007991  0.60247455     0.10200
C1668       C  0.02189216  0.12086344  0.60873684     0.03400
C1669       C  0.04468415  0.12206045  0.60951621    -0.13100
C1670       C  0.05575618  0.12815666  0.62866288    -0.08800
C1671       C  0.04324889  0.13319341  0.64745445     0.06800
C1672       C  0.02050784  0.13276370  0.64635888    -0.13900
S1673       S  0.00859179  0.11145394  0.58421079    -0.30800
H1674       H  0.05392266  0.11787809  0.59512123     0.11100
S1675       S  0.05491032  0.14029664  0.67340056    -0.27900
H1676       H  0.01111410  0.13705719  0.66066312     0.08300
H1677       H  0.92135604  0.16412084  0.60938233     0.26700
H1678       H  0.02755335  0.10808433  0.57183352     0.21500
H1679       H  0.06513899  0.11991428  0.67574974     0.26800
H1680       H  0.00477860  0.08854276  0.64656806     0.15700
C1681       C  0.02961059  0.88670131  0.64459306    -0.11600
C1682       C  0.01852013  0.87607306  0.62771298     0.14900
C1683       C  0.03036811  0.86776284  0.60988431     0.01800
C1684       C  0.05304251  0.86993850  0.60949589    -0.16000
C1685       C  0.06429189  0.88016335  0.62660660    -0.10800
C1686       C  0.05225440  0.88917601  0.64406851     0.08500
C1687       C  0.99448800  0.87526418  0.62846007     0.09600
S1688       S  0.01753885  0.85422420  0.58717516    -0.25100
H1689       H  0.06201334  0.86310384  0.59593134     0.19800
S1690       S  0.06453787  0.90521126  0.66539241    -0.30800
H1691       H  0.02045448  0.89367752  0.65796572     0.10200
C1692       C  0.98337685  0.86045442  0.64199491     0.03400
C1693       C  0.96051175  0.86045897  0.64226049    -0.13100
C1694       C  0.94861800  0.87487101  0.62908811    -0.08800
C1695       C  0.95990258  0.88993235  0.61582803     0.06800
C1696       C  0.98265512  0.88981914  0.61552186    -0.13900
S1697       S  0.99834951  0.84109541  0.65828481    -0.30800
H1698       H  0.95184225  0.84891704  0.65237518     0.11100
S1699       S  0.94631921  0.91027958  0.59959557    -0.27900
H1700       H  0.99125595  0.90138274  0.60534123     0.08300
H1701       H  0.07957402  0.91566874  0.65161859     0.26700
H1702       H  0.98013542  0.83064911  0.66742925     0.21500
H1703       H  0.92933620  0.91402355  0.61445031     0.26800
H1704       H  0.99981750  0.84568500  0.59885319     0.15700
C1705       C  0.13742566  0.02898143  0.61605178    -0.11600
C1706       C  0.12372766  0.01808450  0.63070414     0.14900
C1707       C  0.11128411  0.03034417  0.64567653     0.01800
C1708       C  0.11267971  0.05312223  0.64548295    -0.16000
C1709       C  0.12585897  0.06402225  0.63031358    -0.10800
C1710       C  0.13870620  0.05169174  0.61574049     0.08500
C1711       C  0.12386549  0.99394428  0.63056889     0.09600
S1712       S  0.09284292  0.01799166  0.66489253    -0.25100
H1713       H  0.10273671  0.06243200  0.65669753     0.19800
S1714       S  0.15773065  0.06385365  0.59697541    -0.30800
H1715       H  0.14747478  0.01964695  0.60494735     0.10200
C1716       C  0.11701834  0.98204192  0.61219244     0.03400
C1717       C  0.11954496  0.95935045  0.61188099    -0.13100
C1718       C  0.12848069  0.94806302  0.62971587    -0.08800
C1719       C  0.13464771  0.96016781  0.64844097     0.06800
C1720       C  0.13229798  0.98283345  0.64858777    -0.13900
S1721       S  0.10448469  0.99569503  0.58934298    -0.30800
H1722       H  0.11426370  0.95033438  0.59768668     0.11100
S1723       S  0.14643482  0.94813865  0.67240287    -0.27900
H1724       H  0.13765422  0.99200035  0.66269338     0.08300
H1725       H  0.16398256  0.08087323  0.61100224     0.26700
H1726       H  0.09929370  0.97686788  0.57736381     0.21500
H1727       H  0.16137326  0.93576614  0.66042859     0.26800
H1728       H  0.08759962  0.99983297  0.65196060     0.15700
C1729       C  0.60285639  0.86928046  0.23066315    -0.11600
C1730       C  0.62269948  0.87496346  0.24034122     0.14900
C1731       C  0.64090073  0.87919567  0.22705765     0.01800
C1732       C  0.63904652  0.87704500  0.20446813    -0.16000
C1733       C  0.61923443  0.87108179  0.19451365    -0.10800
C1734       C  0.60087331  0.86722758  0.20805276     0.08500
C1735       C  0.62425126  0.87490257  0.26436009     0.09600
S1736       S  0.66689837  0.88753034  0.23794065    -0.25100
H1737       H  0.65323815  0.88049514  0.19458408     0.19800
S1738       S  0.57458464  0.85900907  0.19799235    -0.30800
H1739       H  0.58889081  0.86589239  0.24090586     0.10200
C1740       C  0.61527662  0.89176294  0.27701465     0.03400
C1741       C  0.61681903  0.89074136  0.29977683    -0.13100
C1742       C  0.62730427  0.87323108  0.31019437    -0.08800
C1743       C  0.63692300  0.85672644  0.29726555     0.06800
C1744       C  0.63498261  0.85759306  0.27459996    -0.13900
S1745       S  0.60215811  0.91470551  0.26413126    -0.30800
H1746       H  0.60949801  0.90348104  0.30951006     0.11100
S1747       S  0.65275912  0.83469964  0.30844326    -0.27900
H1748       H  0.64219217  0.84481655  0.26478920     0.08300
H1749       H  0.58315332  0.84250155  0.18479463     0.26700
H1750       H  0.59869117  0.92688535  0.28321425     0.21500
H1751       H  0.66343408  0.84777753  0.32396384     0.26800
H1752       H  0.65862108  0.89834583  0.25632894     0.15700
C1753       C  0.61861531  0.88732507  0.72877793    -0.11600
C1754       C  0.62623839  0.86917212  0.74027936     0.14900
C1755       C  0.63379030  0.85084158  0.72865541     0.01800
C1756       C  0.63393514  0.85125074  0.70587198    -0.16000
C1757       C  0.62676470  0.86961746  0.69422116    -0.10800
C1758       C  0.61843611  0.88764654  0.70600827     0.08500
C1759       C  0.62535625  0.86963992  0.76435726     0.09600
S1760       S  0.64363296  0.82652411  0.74186868    -0.25100
H1761       H  0.64018235  0.83721320  0.69720085     0.19800
S1762       S  0.60614505  0.91102150  0.69322223    -0.30800
H1763       H  0.61227128  0.90119083  0.73766966     0.10200
C1764       C  0.63969302  0.88277963  0.77656051     0.03400
C1765       C  0.63826070  0.88282117  0.79934746    -0.13100
C1766       C  0.62269358  0.87006900  0.81021243    -0.08800
C1767       C  0.60863593  0.85659663  0.79789346     0.06800
C1768       C  0.60992573  0.85674610  0.77514880    -0.13900
S1769       S  0.66012300  0.89913001  0.76312863    -0.30800
H1770       H  0.64916946  0.89299163  0.80876137     0.11100
S1771       S  0.58961272  0.83797545  0.81021107    -0.27900
H1772       H  0.59907134  0.84645356  0.76576723     0.08300
H1773       H  0.59450994  0.89867335  0.67779460     0.26700
H1774       H  0.66840839  0.90919211  0.78196965     0.21500
H1775       H  0.60365400  0.83199012  0.82729457     0.26800
H1776       H  0.65162421  0.83682817  0.76067837     0.15700
C1777       C  0.73398491  0.85143921  0.62249468    -0.11600
C1778       C  0.74455987  0.87035510  0.62965577     0.14900
C1779       C  0.73201000  0.88832057  0.63650200     0.01800
C1780       C  0.70926849  0.88703826  0.63589859    -0.16000
C1781       C  0.69846995  0.86798519  0.62906405    -0.10800
C1782       C  0.71122969  0.84993405  0.62232589     0.08500
C1783       C  0.76867410  0.87095616  0.62953102     0.09600
S1784       S  0.74400176  0.91330437  0.64629684    -0.25100
H1785       H  0.69994045  0.90104844  0.64117878     0.19800
S1786       S  0.69972041  0.82488443  0.61237171    -0.30800
H1787       H  0.74359527  0.83768197  0.61702857     0.10200
C1788       C  0.78095637  0.85876745  0.64459321     0.03400
C1789       C  0.80374728  0.86013565  0.64425062    -0.13100
C1790       C  0.81457361  0.87331031  0.62903197    -0.08800
C1791       C  0.80216285  0.88574983  0.61413435     0.06800
C1792       C  0.77941285  0.88424800  0.61439920    -0.13900
S1793       S  0.76759621  0.84181510  0.66456304    -0.30800
H1794       H  0.81321488  0.85069241  0.65572484     0.11100
S1795       S  0.81423868  0.90462912  0.59517704    -0.27900
H1796       H  0.76995388  0.89381591  0.60298584     0.08300
H1797       H  0.69082998  0.81946260  0.63277152     0.26700
H1798       H  0.78660727  0.83378812  0.67449989     0.21500
H1799       H  0.83066062  0.91172277  0.60950330     0.26800
H1800       H  0.76250846  0.90368363  0.65571898     0.15700
C1801       C  0.61718432  0.85519638  0.47942917    -0.11600
C1802       C  0.63145242  0.86952158  0.49004915     0.14900
C1803       C  0.64408614  0.88417770  0.47763484     0.01800
C1804       C  0.64175050  0.88456440  0.45499705    -0.16000
C1805       C  0.62746116  0.87026235  0.44430982    -0.10800
C1806       C  0.61487504  0.85555478  0.45676740     0.08500
C1807       C  0.63198438  0.86947883  0.51411002     0.09600
S1808       S  0.66351714  0.90269893  0.48963144    -0.25100
H1809       H  0.65162539  0.89575391  0.44558057     0.19800
S1810       S  0.59473932  0.83776012  0.44491381    -0.30800
H1811       H  0.60729027  0.84410909  0.48894490     0.10200
C1812       C  0.62244543  0.88642421  0.52625204     0.03400
C1813       C  0.62347194  0.88585097  0.54902761    -0.13100
C1814       C  0.63370519  0.86858266  0.56002046    -0.08800
C1815       C  0.64347222  0.85171266  0.54767952     0.06800
C1816       C  0.64220153  0.85220044  0.52493310    -0.13900
S1817       S  0.60827997  0.90839271  0.51276034    -0.30800
H1818       H  0.61579505  0.89869061  0.55834522     0.11100
S1819       S  0.65868122  0.82972074  0.55975589    -0.27900
H1820       H  0.64969088  0.83927339  0.51554038     0.08300
H1821       H  0.58798495  0.85264657  0.42887267     0.26700
H1822       H  0.60279617  0.92014898  0.53162960     0.21500
H1823       H  0.66884422  0.84295520  0.57547027     0.26800
H1824       H  0.66841697  0.88988957  0.50793331     0.15700
C1825       C  0.23457411  0.88219819  0.63917784    -0.11600
C1826       C  0.24413379  0.87342471  0.62045619     0.14900
C1827       C  0.23082773  0.86755129  0.60266125     0.01800
C1828       C  0.20830839  0.87088663  0.60392067    -0.16000
C1829       C  0.19858203  0.87966406  0.62272171    -0.10800
C1830       C  0.21212598  0.88562141  0.64043004     0.08500
C1831       C  0.26811777  0.87163928  0.61989731     0.09600
S1832       S  0.24147186  0.85559798  0.57802246    -0.25100
H1833       H  0.19825133  0.86600690  0.59026242     0.19800
S1834       S  0.20214200  0.89897219  0.66449018    -0.30800
H1835       H  0.24482320  0.88703558  0.65272098     0.10200
C1836       C  0.28089407  0.88649647  0.60799587     0.03400
C1837       C  0.30363892  0.88518312  0.60921451    -0.13100
C1838       C  0.31390498  0.86943600  0.62224073    -0.08800
C1839       C  0.30098523  0.85469682  0.63432793     0.06800
C1840       C  0.27827852  0.85584320  0.63285397    -0.13900
S1841       S  0.26826163  0.90763052  0.59190602    -0.30800
H1842       H  0.31351459  0.89651174  0.60000304     0.11100
S1843       S  0.31232268  0.83504936  0.65295025    -0.27900
H1844       H  0.26840118  0.84472693  0.64235224     0.08300
H1845       H  0.18919447  0.91333082  0.65233992     0.26700
H1846       H  0.28758991  0.91658584  0.58349522     0.21500
H1847       H  0.32879349  0.84893710  0.66078477     0.26800
H1848       H  0.26013324  0.84623596  0.58737114     0.15700
C1849       C  0.35840023  0.87616510  0.77040777    -0.11600
C1850       C  0.37788573  0.87046987  0.76005339     0.14900
C1851       C  0.39654580  0.86623460  0.77272822     0.01800
C1852       C  0.39538057  0.86804014  0.79538095    -0.16000
C1853       C  0.37585202  0.87368939  0.80601130    -0.10800
C1854       C  0.35712258  0.87789703  0.79308222     0.08500
C1855       C  0.37848730  0.87005429  0.73598685     0.09600
S1856       S  0.42227434  0.85819696  0.76103156    -0.25100
H1857       H  0.40990513  0.86456465  0.80476975     0.19800
S1858       S  0.33118362  0.88608149  0.80400992    -0.30800
H1859       H  0.34411429  0.87968036  0.76064946     0.10200
C1860       C  0.36732469  0.85398407  0.72398534     0.03400
C1861       C  0.36859617  0.85410096  0.70119947    -0.13100
C1862       C  0.38078678  0.86998507  0.69014239    -0.08800
C1863       C  0.39224069  0.88586510  0.70231856     0.06800
C1864       C  0.39068669  0.88590831  0.72501802    -0.13900
S1865       S  0.35189153  0.83302907  0.73769069    -0.30800
H1866       H  0.35986632  0.84190160  0.69192332     0.11100
S1867       S  0.41000419  0.90577004  0.69006597    -0.27900
H1868       H  0.39943190  0.89813728  0.73428090     0.08300
H1869       H  0.34015259  0.90270024  0.81685365     0.26700
H1870       H  0.34434018  0.82239230  0.71885837     0.21500
H1871       H  0.41854444  0.89139183  0.67439732     0.26800
H1872       H  0.41351391  0.84729498  0.74290233     0.15700
C1873       C  0.52920552  0.85605652  0.61176682    -0.11600
C1874       C  0.51808492  0.87071307  0.62525664     0.14900
C1875       C  0.53007393  0.88535944  0.63834205     0.01800
C1876       C  0.55285590  0.88523699  0.63737761    -0.16000
C1877       C  0.56404643  0.87040021  0.62405539    -0.10800
C1878       C  0.55197581  0.85588802  0.61083975     0.08500
C1879       C  0.49399703  0.87062081  0.62486882     0.09600
S1880       S  0.51733639  0.90440434  0.65673585    -0.25100
H1881       H  0.56193951  0.89637247  0.64763701     0.19800
S1882       S  0.56456364  0.83754215  0.59168836    -0.30800
H1883       H  0.52003227  0.84498219  0.60151817     0.10200
C1884       C  0.48212780  0.88672752  0.61367500     0.03400
C1885       C  0.45928902  0.88599835  0.61382374    -0.13100
C1886       C  0.44803050  0.86947741  0.62497153    -0.08800
C1887       C  0.46009969  0.85359491  0.63653356     0.06800
C1888       C  0.48287420  0.85411154  0.63598600    -0.13900
S1889       S  0.49609717  0.90789742  0.59879468    -0.30800
H1890       H  0.45015004  0.89816365  0.60493285     0.11100
S1891       S  0.44757126  0.83305274  0.65333291    -0.27900
H1892       H  0.49204438  0.84189922  0.64482287     0.08300
H1893       H  0.58140876  0.85191225  0.58577370     0.26700
H1894       H  0.47738062  0.91902987  0.59170809     0.21500
H1895       H  0.43154328  0.84705441  0.66183597     0.26800
H1896       H  0.49860399  0.89195126  0.66092915     0.15700
C1897       C  0.37580306  0.89370148  0.27085090    -0.11600
C1898       C  0.37780178  0.87366895  0.26009576     0.14900
C1899       C  0.37893746  0.85437783  0.27247289     0.01800
C1900       C  0.37851776  0.85558569  0.29519910    -0.16000
C1901       C  0.37623187  0.87561846  0.30619292    -0.10800
C1902       C  0.37444222  0.89489716  0.29356217     0.08500
C1903       C  0.37873333  0.87349803  0.23598843     0.09600
S1904       S  0.38060722  0.82767701  0.26030488    -0.25100
H1905       H  0.37978525  0.84054976  0.30432121     0.19800
S1906       S  0.36966906  0.92148419  0.30497378    -0.30800
H1907       H  0.37481193  0.90855493  0.26137484     0.10200
C1908       C  0.36076830  0.88008533  0.22334119     0.03400
C1909       C  0.36244439  0.88008677  0.20060075    -0.13100
C1910       C  0.38162657  0.87335642  0.19004266    -0.08800
C1911       C  0.39935525  0.86599591  0.20287246     0.06800
C1912       C  0.39784923  0.86658889  0.22560688    -0.13900
S1913       S  0.33542605  0.88788986  0.23610212    -0.30800
H1914       H  0.34870839  0.88552689  0.19099713     0.11100
S1915       S  0.42389588  0.85464795  0.19148360    -0.27900
H1916       H  0.41156271  0.86122199  0.23533292     0.08300
H1917       H  0.35170445  0.91453302  0.31739117     0.26700
H1918       H  0.32436383  0.89385899  0.21696405     0.21500
H1919       H  0.41290460  0.84213817  0.17571561     0.26800
H1920       H  0.36827414  0.83268722  0.24168415     0.15700
C1921       C  0.47804734  0.88674212  0.38818308    -0.11600
C1922       C  0.48936571  0.87305877  0.37383566     0.14900
C1923       C  0.47748226  0.85899312  0.35999897     0.01800
C1924       C  0.45469193  0.85888384  0.36087813    -0.16000
C1925       C  0.44335853  0.87289514  0.37491873    -0.10800
C1926       C  0.45528079  0.88675224  0.38896214     0.08500
C1927       C  0.51351128  0.87289442  0.37464291     0.09600
S1928       S  0.49038260  0.84116720  0.34054847    -0.25100
H1929       H  0.44571328  0.84824587  0.35001627     0.19800
S1930       S  0.44251661  0.90399567  0.40901689    -0.30800
H1931       H  0.48707165  0.89717510  0.39920675     0.10200
C1932       C  0.52593986  0.89118666  0.36851516     0.03400
C1933       C  0.54875623  0.89021178  0.36966817    -0.13100
C1934       C  0.55957943  0.87122707  0.37661235    -0.08800
C1935       C  0.54687011  0.85294848  0.38281152     0.06800
C1936       C  0.52413681  0.85409852  0.38195523    -0.13900
S1937       S  0.51280339  0.91552247  0.35847773    -0.30800
H1938       H  0.55821885  0.90423717  0.36473920     0.11100
S1939       S  0.55841126  0.82791545  0.39271301    -0.27900
H1940       H  0.51457837  0.84012270  0.38694484     0.08300
H1941       H  0.42588911  0.88912847  0.41426770     0.26700
H1942       H  0.53183875  0.92789956  0.35544557     0.21500
H1943       H  0.56681197  0.82231773  0.37214556     0.26800
H1944       H  0.50854512  0.85455019  0.33663416     0.15700
C1945       C  0.39183115  0.85564042  0.52079656    -0.11600
C1946       C  0.37704363  0.86970332  0.51056205     0.14900
C1947       C  0.36327236  0.88291316  0.52335258     0.01800
C1948       C  0.36534545  0.88258392  0.54599940    -0.16000
C1949       C  0.38031162  0.86872394  0.55629637    -0.10800
C1950       C  0.39368882  0.85506781  0.54349623     0.08500
C1951       C  0.37682632  0.87070284  0.48654174     0.09600
S1952       S  0.34261707  0.90031775  0.51179445    -0.25100
H1953       H  0.35477060  0.89284045  0.55571795     0.19800
S1954       S  0.41411958  0.83741777  0.55502094    -0.30800
H1955       H  0.40239909  0.84546876  0.51098826     0.10200
C1956       C  0.38533098  0.88875607  0.47524144     0.03400
C1957       C  0.38457950  0.88905278  0.45243700    -0.13100
C1958       C  0.37535257  0.87171777  0.44064234    -0.08800
C1959       C  0.36632091  0.85389627  0.45221101     0.06800
C1960       C  0.36762063  0.85339484  0.47491997    -0.13900
S1961       S  0.39769442  0.91112990  0.48983462    -0.30800
H1962       H  0.39157621  0.90269439  0.44374716     0.11100
S1963       S  0.35178057  0.83190878  0.43927035    -0.27900
H1964       H  0.36076104  0.83970388  0.48369037     0.08300
H1965       H  0.42009309  0.85170852  0.57191133     0.26700
H1966       H  0.40147007  0.92449500  0.47163635     0.21500
H1967       H  0.34042668  0.84556296  0.42478002     0.26800
H1968       H  0.33852768  0.88748429  0.49328625     0.15700
C1969       C  0.85972202  0.38347019  0.72989704    -0.11600
C1970       C  0.87431750  0.36956066  0.74057730     0.14900
C1971       C  0.88912557  0.35709638  0.72815400     0.01800
C1972       C  0.88895408  0.35883567  0.70539001    -0.16000
C1973       C  0.87440922  0.37286050  0.69466339    -0.10800
C1974       C  0.85978432  0.38544767  0.70720911     0.08500
C1975       C  0.87411608  0.36917879  0.76468530     0.09600
S1976       S  0.90841594  0.33851541  0.74022888    -0.25100
H1977       H  0.90016530  0.34901373  0.69594840     0.19800
S1978       S  0.84173605  0.40525397  0.69535574    -0.30800
H1979       H  0.84854983  0.39328940  0.73939281     0.10200
C1980       C  0.88448995  0.38568022  0.77677992     0.03400
C1981       C  0.88347421  0.38528449  0.79957822    -0.13100
C1982       C  0.87222254  0.36872620  0.81065994    -0.08800
C1983       C  0.86144913  0.35240324  0.79838829     0.06800
C1984       C  0.86275796  0.35266433  0.77559572    -0.13900
S1985       S  0.89948841  0.40697197  0.76311537    -0.30800
H1986       H  0.89183557  0.39774142  0.80885059     0.11100
S1987       S  0.84484175  0.33154064  0.81066445    -0.27900
H1988       H  0.85444820  0.34019791  0.76625603     0.08300
H1989       H  0.85706938  0.41250805  0.67997085     0.26700
H1990       H  0.90535410  0.41869733  0.78189919     0.21500
H1991       H  0.83602616  0.34523506  0.82678334     0.26800
H1992       H  0.91056999  0.34922025  0.76031733     0.15700
C1993       C  0.89481010  0.27097586  0.62609145    -0.11600
C1994       C  0.87471646  0.26021994  0.62718894     0.14900
C1995       C  0.85542674  0.27257683  0.62851875     0.01800
C1996       C  0.85660433  0.29528414  0.62802263    -0.16000
C1997       C  0.87668751  0.30633471  0.62674078    -0.10800
C1998       C  0.89607254  0.29374368  0.62564168     0.08500
C1999       C  0.87445227  0.23612070  0.62676412     0.09600
S2000       S  0.82877627  0.26045323  0.63120731    -0.25100
H2001       H  0.84151338  0.30435195  0.62902603     0.19800
S2002       S  0.92294416  0.30527449  0.62335672    -0.30800
H2003       H  0.90966123  0.26148683  0.62512928     0.10200
C2004       C  0.86611018  0.22443684  0.60885409     0.03400
C2005       C  0.86552182  0.20160702  0.60961118    -0.13100
C2006       C  0.87375828  0.19011695  0.62762800    -0.08800
C2007       C  0.88339475  0.20201343  0.64492307     0.06800
C2008       C  0.88316582  0.22477589  0.64450032    -0.13900
S2009       S  0.85685785  0.23855937  0.58476732    -0.30800
H2010       H  0.85859463  0.19267285  0.59608458     0.11100
S2011       S  0.89755595  0.18935839  0.66728795    -0.27900
H2012       H  0.89022145  0.23377070  0.65795651     0.08300
H2013       H  0.91776773  0.31721376  0.60453296     0.26700
H2014       H  0.85167206  0.21992951  0.57248313     0.21500
H2015       H  0.90844611  0.17412091  0.65406824     0.26800
H2016       H  0.83559431  0.24168193  0.64236247     0.15700
C2017       C  0.87554600  0.35351458  0.23003183    -0.11600
C2018       C  0.86959522  0.37268373  0.24078804     0.14900
C2019       C  0.86655159  0.39192842  0.22865030     0.01800
C2020       C  0.86976423  0.39162187  0.20610212    -0.16000
C2021       C  0.87568403  0.37238940  0.19509544    -0.10800
C2022       C  0.87873349  0.35309651  0.20751398     0.08500
C2023       C  0.86855226  0.37241997  0.26483705     0.09600
S2024       S  0.85827975  0.41730514  0.24092925    -0.25100
H2025       H  0.86709380  0.40652489  0.19706144     0.19800
S2026       S  0.88735003  0.32745348  0.19618142    -0.30800
H2027       H  0.87828388  0.33881410  0.23940680     0.10200
C2028       C  0.85219676  0.36093311  0.27611252     0.03400
C2029       C  0.85236329  0.36074245  0.29896711    -0.13100
C2030       C  0.86868033  0.37166471  0.31074911    -0.08800
C2031       C  0.88482751  0.38343952  0.29926506     0.06800
C2032       C  0.88471120  0.38346047  0.27653843    -0.13900
S2033       S  0.83097978  0.34680421  0.26140407    -0.30800
H2034       H  0.83994930  0.35178400  0.30770147     0.11100
S2035       S  0.90545456  0.39959425  0.31251298    -0.27900
H2036       H  0.89723533  0.39234954  0.26784441     0.08300
H2037       H  0.90462252  0.33675409  0.18449062     0.26700
H2038       H  0.82044851  0.33793212  0.27969052     0.21500
H2039       H  0.89136624  0.40748570  0.32871209     0.26800
H2040       H  0.84640552  0.40798219  0.25812479     0.15700
C2041       C  0.85584765  0.35881951  0.48041020    -0.11600
C2042       C  0.87050444  0.37326172  0.49035939     0.14900
C2043       C  0.88474265  0.38568282  0.47731966     0.01800
C2044       C  0.88427731  0.38315276  0.45470463    -0.16000
C2045       C  0.86959990  0.36875445  0.44467318    -0.10800
C2046       C  0.85534079  0.35630892  0.45775960     0.08500
C2047       C  0.87154781  0.37391806  0.51439045     0.09600
S2048       S  0.90377869  0.40506403  0.48852828    -0.25100
H2049       H  0.89513050  0.39292393  0.44479891     0.19800
S2050       S  0.83704647  0.33615369  0.44669966    -0.30800
H2051       H  0.84513468  0.34901413  0.49043049     0.10200
C2052       C  0.85574357  0.38496930  0.52675797     0.03400
C2053       C  0.85707141  0.38459632  0.54955436    -0.13100
C2054       C  0.87389463  0.37334364  0.56026541    -0.08800
C2055       C  0.88962345  0.36214845  0.54769302     0.06800
C2056       C  0.88843335  0.36281230  0.52495902    -0.13900
S2057       S  0.83418616  0.39990191  0.51345593    -0.30800
H2058       H  0.84504178  0.39324348  0.55910084     0.11100
S2059       S  0.91070109  0.34556070  0.55955817    -0.27900
H2060       H  0.90042669  0.35409580  0.51539237     0.08300
H2061       H  0.85111967  0.32939529  0.42994097     0.26700
H2062       H  0.82446823  0.40814266  0.53247911     0.21500
H2063       H  0.89707770  0.33663446  0.57565480     0.26800
H2064       H  0.89136344  0.41053503  0.50694403     0.15700
C2065       C  0.86868092  0.72553197  0.61179058    -0.11600
C2066       C  0.88176266  0.73599875  0.62730996     0.14900
C2067       C  0.89386790  0.72342415  0.64225489     0.01800
C2068       C  0.89242948  0.70069445  0.64149178    -0.16000
C2069       C  0.87919562  0.69020816  0.62608185    -0.10800
C2070       C  0.86744584  0.70281422  0.61085825     0.08500
C2071       C  0.88197762  0.76004405  0.62774411     0.09600
S2072       S  0.91110404  0.73535359  0.66285167    -0.25100
H2073       H  0.90149522  0.69110590  0.65320771     0.19800
S2074       S  0.85122113  0.69091343  0.58945345    -0.30800
H2075       H  0.85949720  0.73517153  0.60021061     0.10200
C2076       C  0.89367259  0.77211496  0.61216730     0.03400
C2077       C  0.89297942  0.79493054  0.61281569    -0.13100
C2078       C  0.88074437  0.80593478  0.62870538    -0.08800
C2079       C  0.86865539  0.79366544  0.64401798     0.06800
C2080       C  0.86967588  0.77091271  0.64355777    -0.13900
S2081       S  0.90993003  0.75842108  0.59185073    -0.30800
H2082       H  0.90228205  0.80426019  0.60111241     0.11100
S2083       S  0.85061953  0.80590998  0.66366115    -0.27900
H2084       H  0.86036595  0.76155942  0.65526661     0.08300
H2085       H  0.86505738  0.67301553  0.58586957     0.26700
H2086       H  0.91680563  0.77724492  0.58077212     0.21500
H2087       H  0.84294799  0.82210432  0.64940438     0.26800
H2088       H  0.91647762  0.75429435  0.65120941     0.15700
C2089       C  0.85619218  0.61520810  0.72928373    -0.11600
C2090       C  0.87297358  0.62587031  0.74048832     0.14900
C2091       C  0.89008118  0.63558679  0.72864278     0.01800
C2092       C  0.89015282  0.63426306  0.70590911    -0.16000
C2093       C  0.87329030  0.62373555  0.69455534    -0.10800
C2094       C  0.85625178  0.61382368  0.70653666     0.08500
C2095       C  0.87289033  0.62550299  0.76454801     0.09600
S2096       S  0.91225763  0.64990218  0.74157235    -0.25100
H2097       H  0.90328834  0.64195508  0.69698774     0.19800
S2098       S  0.83479149  0.59814106  0.69402989    -0.30800
H2099       H  0.84324709  0.60740842  0.73839274     0.10200
C2100       C  0.85985983  0.63992805  0.77669686     0.03400
C2101       C  0.86085991  0.63944348  0.79951682    -0.13100
C2102       C  0.87452905  0.62468691  0.81042215    -0.08800
C2103       C  0.88769157  0.61036277  0.79808571     0.06800
C2104       C  0.88654415  0.61077977  0.77535068    -0.13900
S2105       S  0.84238080  0.65925300  0.76308231    -0.30800
H2106       H  0.85082255  0.65045665  0.80893237     0.11100
S2107       S  0.90714161  0.59205199  0.81024992    -0.27900
H2108       H  0.89673990  0.59986827  0.76595083     0.08300
H2109       H  0.84829329  0.58830011  0.67837920     0.26700
H2110       H  0.83340592  0.66854973  0.78198384     0.21500
H2111       H  0.91377607  0.60667119  0.82661121     0.26800
H2112       H  0.90037362  0.65733360  0.75964633     0.15700
C2113       C  0.85215798  0.47571732  0.62759242    -0.11600
C2114       C  0.87147277  0.48698040  0.62319917     0.14900
C2115       C  0.89084694  0.47515438  0.61977141     0.01800
C2116       C  0.89062189  0.45245415  0.62154426    -0.16000
C2117       C  0.87133172  0.44096045  0.62624608    -0.10800
C2118       C  0.85177979  0.45301421  0.62914747     0.08500
C2119       C  0.87125744  0.51104442  0.62432565     0.09600
S2120       S  0.91632709  0.48806371  0.61286164    -0.25100
H2121       H  0.90570521  0.44371854  0.61885570     0.19800
S2122       S  0.82579765  0.44095408  0.63546797    -0.30800
H2123       H  0.83729938  0.48479585  0.63048314     0.10200
C2124       C  0.85895068  0.52374720  0.60968868     0.03400
C2125       C  0.85895600  0.54647116  0.61189044    -0.13100
C2126       C  0.87135497  0.55673154  0.62811468    -0.08800
C2127       C  0.88332056  0.54393589  0.64299591     0.06800
C2128       C  0.88313872  0.52128925  0.64092527    -0.13900
S2129       S  0.84417878  0.51117094  0.58755681    -0.30800
H2130       H  0.84985596  0.55634032  0.60050111     0.11100
S2131       S  0.89864419  0.55540031  0.66529529    -0.27900
H2132       H  0.89222394  0.51150626  0.65246195     0.08300
H2133       H  0.83394866  0.42901202  0.65314236     0.26700
H2134       H  0.83546738  0.53044692  0.57877715     0.21500
H2135       H  0.88492660  0.57340507  0.66862625     0.26800
H2136       H  0.90710653  0.50595511  0.60195554     0.15700
C2137       C  0.86102427  0.60671539  0.22880123    -0.11600
C2138       C  0.87356442  0.62159100  0.24072090     0.14900
C2139       C  0.88574529  0.63759736  0.22956715     0.01800
C2140       C  0.88513001  0.63831547  0.20678158    -0.16000
C2141       C  0.87284415  0.62320054  0.19477314    -0.10800
C2142       C  0.86023383  0.60755583  0.20606026     0.08500
C2143       C  0.87291543  0.62039619  0.26476340     0.09600
S2144       S  0.90235879  0.65753396  0.24338238    -0.25100
H2145       H  0.89480997  0.65041504  0.19834332     0.19800
S2146       S  0.84184451  0.58905111  0.19254989    -0.30800
H2147       H  0.85131611  0.59470665  0.23734415     0.10200
C2148       C  0.85966978  0.63450674  0.27707271     0.03400
C2149       C  0.85968308  0.63289950  0.29986693    -0.13100
C2150       C  0.87268173  0.61742868  0.31055719    -0.08800
C2151       C  0.88527136  0.60275127  0.29808591     0.06800
C2152       C  0.88538687  0.60450271  0.27537031    -0.13900
S2153       S  0.84274873  0.65449177  0.26370241    -0.30800
H2154       H  0.84993465  0.64403476  0.30944519     0.11100
S2155       S  0.90083385  0.58096504  0.31013900    -0.27900
H2156       H  0.89517761  0.59332750  0.26585360     0.08300
H2157       H  0.83509736  0.60414119  0.17668345     0.26700
H2158       H  0.83328096  0.66312882  0.28267496     0.21500
H2159       H  0.88626950  0.57708473  0.32737996     0.26800
H2160       H  0.90689200  0.64497867  0.26194107     0.15700
C2161       C  0.89101113  0.51609441  0.38638197    -0.11600
C2162       C  0.87214131  0.50540739  0.37927038     0.14900
C2163       C  0.85393198  0.51780678  0.37280126     0.01800
C2164       C  0.85509295  0.54055118  0.37330451    -0.16000
C2165       C  0.87414186  0.55141577  0.37997871    -0.10800
C2166       C  0.89216555  0.53883047  0.38707148     0.08500
C2167       C  0.87182986  0.48132526  0.37930240     0.09600
S2168       S  0.82887714  0.50562992  0.36342402    -0.25100
H2169       H  0.84108523  0.54981823  0.36791089     0.19800
S2170       S  0.91670789  0.55048296  0.39821330    -0.30800
H2171       H  0.90484671  0.50657890  0.39182051     0.10200
C2172       C  0.88470397  0.46927565  0.36463207     0.03400
C2173       C  0.88412919  0.44648255  0.36531908    -0.13100
C2174       C  0.87062464  0.43548126  0.38008512    -0.08800
C2175       C  0.85796197  0.44760215  0.39498316     0.06800
C2176       C  0.85862178  0.47037027  0.39435994    -0.13900
S2177       S  0.90117616  0.48290638  0.34443519    -0.30800
H2178       H  0.89388837  0.43717492  0.35400331     0.11100
S2179       S  0.84142095  0.43502761  0.41572058    -0.27900
H2180       H  0.84896382  0.47965057  0.40584321     0.08300
H2181       H  0.90562460  0.56568045  0.41130982     0.26700
H2182       H  0.90915470  0.46402861  0.33420684     0.21500
H2183       H  0.85573395  0.41758580  0.41966205     0.26800
H2184       H  0.83840986  0.48705844  0.35404121     0.15700
C2185       C  0.86469026  0.63529712  0.47908479    -0.11600
C2186       C  0.87829394  0.62085016  0.49032693     0.14900
C2187       C  0.89172014  0.60641265  0.47848322     0.01800
C2188       C  0.89143718  0.60697092  0.45570009    -0.16000
C2189       C  0.87757424  0.62121226  0.44442173    -0.10800
C2190       C  0.86433403  0.63580274  0.45633133     0.08500
C2191       C  0.87805037  0.62132812  0.51438563     0.09600
S2192       S  0.90928228  0.58672128  0.49140159    -0.25100
H2193       H  0.90159849  0.59569669  0.44669715     0.19800
S2194       S  0.84732021  0.65604378  0.44355596    -0.30800
H2195       H  0.85452567  0.64652141  0.48814654     0.10200
C2196       C  0.89497557  0.63104230  0.52644596     0.03400
C2197       C  0.89405058  0.63084864  0.54927804    -0.13100
C2198       C  0.87643180  0.62126418  0.56031846    -0.08800
C2199       C  0.85955934  0.61140671  0.54800695     0.06800
C2200       C  0.86042581  0.61185434  0.52527568    -0.13900
S2201       S  0.91739456  0.64421481  0.51272088    -0.30800
H2202       H  0.90690224  0.63855837  0.55857296     0.11100
S2203       S  0.83705538  0.59698414  0.56011434    -0.27900
H2204       H  0.84749860  0.60425752  0.51594607     0.08300
H2205       H  0.86146519  0.66015580  0.42605521     0.26700
H2206       H  0.92867605  0.65073940  0.53155991     0.21500
H2207       H  0.84985804  0.58706993  0.57627409     0.26800
H2208       H  0.89665869  0.58380175  0.51024098     0.15700
C2209       C  0.37698088  0.14325761  0.72973797    -0.11600
C2210       C  0.38132748  0.12290789  0.73902802     0.14900
C2211       C  0.38322470  0.10453758  0.72537263     0.01800
C2212       C  0.38039178  0.10688579  0.70286512    -0.16000
C2213       C  0.37609182  0.12732918  0.69334324    -0.10800
C2214       C  0.37433089  0.14573582  0.70726912     0.08500
C2215       C  0.38248764  0.12138205  0.76308971     0.09600
S2216       S  0.38972321  0.07777879  0.73558871    -0.25100
H2217       H  0.38208636  0.09257545  0.69268908     0.19800
S2218       S  0.36827185  0.17285587  0.69792795    -0.30800
H2219       H  0.37523091  0.15735953  0.74021820     0.10200
C2220       C  0.39905172  0.13193674  0.77498794     0.03400
C2221       C  0.39847990  0.13156952  0.79780713    -0.13100
C2222       C  0.38177740  0.12070364  0.80907462    -0.08800
C2223       C  0.36583678  0.10919492  0.79702059     0.06800
C2224       C  0.36614463  0.11000716  0.77425350    -0.13900
S2225       S  0.42107384  0.14566015  0.76111952    -0.30800
H2226       H  0.41088937  0.14016320  0.80692704     0.11100
S2227       S  0.34524281  0.09247024  0.80956776    -0.27900
H2228       H  0.35356381  0.10163467  0.76512229     0.08300
H2229       H  0.34997190  0.16619097  0.68595364     0.26700
H2230       H  0.43236798  0.15244687  0.77985895     0.21500
H2231       H  0.35906367  0.08434184  0.82594306     0.26800
H2232       H  0.40213268  0.08493549  0.75345610     0.15700
C2233       C  0.27113855  0.14899845  0.63607143    -0.11600
C2234       C  0.26000809  0.13218053  0.62540816     0.14900
C2235       C  0.27192607  0.11503818  0.61585152     0.01800
C2236       C  0.29468733  0.11514777  0.61705753    -0.16000
C2237       C  0.30601534  0.13209239  0.62753912    -0.10800
C2238       C  0.29388277  0.14894547  0.63760571     0.08500
C2239       C  0.23594135  0.13235059  0.62564402     0.09600
S2240       S  0.25906341  0.09241171  0.60218722    -0.25100
H2241       H  0.30362336  0.10202094  0.60937318     0.19800
S2242       S  0.30618255  0.16986466  0.65406858    -0.30800
H2243       H  0.26196394  0.16187293  0.64391729     0.10200
C2244       C  0.22414940  0.12000076  0.64092381     0.03400
C2245       C  0.20133423  0.12058037  0.64060489    -0.13100
C2246       C  0.19004469  0.13321759  0.62525217    -0.08800
C2247       C  0.20197604  0.14590211  0.61019072     0.06800
C2248       C  0.22476886  0.14524054  0.61049046    -0.13900
S2249       S  0.23819267  0.10362040  0.66090237    -0.30800
H2250       H  0.19220739  0.11092806  0.65218790     0.11100
S2251       S  0.18918757  0.16393282  0.59088244    -0.27900
H2252       H  0.23389829  0.15495378  0.59893653     0.08300
H2253       H  0.32035214  0.15522221  0.66449023     0.26700
H2254       H  0.21951578  0.09462345  0.67063295     0.21500
H2255       H  0.17242768  0.17059641  0.60499376     0.26800
H2256       H  0.24061666  0.10380664  0.59490780     0.15700
C2257       C  0.35255577  0.14078430  0.27409001    -0.11600
C2258       C  0.36525279  0.12521323  0.26329242     0.14900
C2259       C  0.37682727  0.10961668  0.27557880     0.01800
C2260       C  0.37605467  0.11041127  0.29836045    -0.16000
C2261       C  0.36376485  0.12633733  0.30924588    -0.10800
C2262       C  0.35139438  0.14130585  0.29683011     0.08500
C2263       C  0.36664598  0.12617169  0.23925912     0.09600
S2264       S  0.39319957  0.08863072  0.26317332    -0.25100
H2265       H  0.38546032  0.09873760  0.30766131     0.19800
S2266       S  0.33322591  0.16094370  0.30891756    -0.30800
H2267       H  0.34338536  0.15256552  0.26468413     0.10200
C2268       C  0.34969452  0.11831821  0.22597406     0.03400
C2269       C  0.35170588  0.11958702  0.20325901    -0.13100
C2270       C  0.37023814  0.12884802  0.19344147    -0.08800
C2271       C  0.38682729  0.13748700  0.20700376     0.06800
C2272       C  0.38501604  0.13566278  0.22965130    -0.13900
S2273       S  0.32577514  0.10613513  0.23798868    -0.30800
H2274       H  0.33890655  0.11296974  0.19309836     0.11100
S2275       S  0.41011439  0.15206273  0.19668804    -0.27900
H2276       H  0.39781273  0.14216252  0.23993587     0.08300
H2277       H  0.32616955  0.14709656  0.32574573     0.26700
H2278       H  0.31481601  0.10166303  0.21837795     0.21500
H2279       H  0.39818064  0.16357412  0.18086700     0.26800
H2280       H  0.38082738  0.08665102  0.24402462     0.15700
C2281       C  0.35940424  0.11935588  0.47952049    -0.11600
C2282       C  0.37044799  0.13683609  0.48916729     0.14900
C2283       C  0.37963519  0.15313710  0.47580279     0.01800
C2284       C  0.37754479  0.15149946  0.45314445    -0.16000
C2285       C  0.36671225  0.13380382  0.44338227    -0.10800
C2286       C  0.35712655  0.11781660  0.45693185     0.08500
C2287       C  0.37187469  0.13731533  0.51320381     0.09600
S2288       S  0.39433518  0.17628942  0.48644856    -0.25100
H2289       H  0.38494762  0.16391748  0.44303551     0.19800
S2290       S  0.34082277  0.09566482  0.44666374    -0.30800
H2291       H  0.35207474  0.10699891  0.48976883     0.10200
C2292       C  0.35834583  0.15084615  0.52585049     0.03400
C2293       C  0.35942695  0.14963221  0.54865588    -0.13100
C2294       C  0.37348549  0.13486099  0.55904138    -0.08800
C2295       C  0.38733220  0.12164353  0.54622652     0.06800
C2296       C  0.38621421  0.12290043  0.52352552    -0.13900
S2297       S  0.33908659  0.16892879  0.51293891    -0.30800
H2298       H  0.34882737  0.15974488  0.55845822     0.11100
S2299       S  0.40710159  0.10315545  0.55763883    -0.27900
H2300       H  0.39664905  0.11254921  0.51376058     0.08300
H2301       H  0.33009516  0.10839180  0.43091323     0.26700
H2302       H  0.33018588  0.17758102  0.53217838     0.21500
H2303       H  0.41173720  0.11561862  0.57622727     0.26800
H2304       H  0.40044461  0.16699346  0.50641184     0.15700
C2305       C  0.77116580  0.10801039  0.61201893    -0.11600
C2306       C  0.75973118  0.11997566  0.62769562     0.14900
C2307       C  0.77133349  0.13162844  0.64375968     0.01800
C2308       C  0.79411495  0.13125880  0.64362073    -0.16000
C2309       C  0.80566745  0.11971909  0.62761014    -0.10800
C2310       C  0.79393767  0.10750660  0.61195913     0.08500
C2311       C  0.73570936  0.11967918  0.62704210     0.09600
S2312       S  0.75810908  0.14721004  0.66486757    -0.25100
H2313       H  0.80289576  0.14053420  0.65580905     0.19800
S2314       S  0.80692530  0.09005172  0.59225725    -0.30800
H2315       H  0.76224085  0.09871078  0.59994984     0.10200
C2316       C  0.72408354  0.13419777  0.61366711     0.03400
C2317       C  0.70126550  0.13380656  0.61387209    -0.13100
C2318       C  0.68983708  0.11913292  0.62717708    -0.08800
C2319       C  0.70163189  0.10469332  0.64070519     0.06800
C2320       C  0.72441476  0.10495069  0.64028064    -0.13900
S2321       S  0.73837816  0.15354904  0.59676386    -0.30800
H2322       H  0.69225578  0.14492341  0.60357965     0.11100
S2323       S  0.68869003  0.08655434  0.65980139    -0.27900
H2324       H  0.73343620  0.09397684  0.65074329     0.08300
H2325       H  0.82331946  0.08277267  0.60652098     0.26700
H2326       H  0.71981901  0.16407559  0.58844418     0.21500
H2327       H  0.67262164  0.10155323  0.66626192     0.26800
H2328       H  0.73940670  0.15275434  0.65294093     0.15700
C2329       C  0.64318360  0.11417381  0.77560392    -0.11600
C2330       C  0.62633543  0.12488599  0.76458970     0.14900
C2331       C  0.60929856  0.13450243  0.77662895     0.01800
C2332       C  0.60947144  0.13317840  0.79936062    -0.16000
C2333       C  0.62643278  0.12262957  0.81052773    -0.10800
C2334       C  0.64329208  0.11266638  0.79832656     0.08500
C2335       C  0.62615646  0.12440716  0.74053160     0.09600
S2336       S  0.58694522  0.14875261  0.76396689    -0.25100
H2337       H  0.59643699  0.14088118  0.80841374     0.19800
S2338       S  0.66462274  0.09660328  0.81050075    -0.30800
H2339       H  0.65600148  0.10633331  0.76635112     0.10200
C2340       C  0.64042535  0.13741832  0.72814946     0.03400
C2341       C  0.63930087  0.13668073  0.70534329    -0.13100
C2342       C  0.62426966  0.12308594  0.69472663    -0.08800
C2343       C  0.60989135  0.11020653  0.70725799     0.06800
C2344       C  0.61116161  0.11083520  0.72996024    -0.13900
S2345       S  0.65969443  0.15526855  0.74140887    -0.30800
H2346       H  0.65029314  0.14653823  0.69571423     0.11100
S2347       S  0.58887039  0.09348716  0.69535190    -0.27900
H2348       H  0.60007892  0.10097790  0.73951868     0.08300
H2349       H  0.65080219  0.08633474  0.82562279     0.26700
H2350       H  0.66879813  0.16406570  0.72233584     0.21500
H2351       H  0.58374441  0.10816654  0.67854706     0.26800
H2352       H  0.59857920  0.15603538  0.74566748     0.15700
C2353       C  0.47603409  0.14254092  0.61474953    -0.11600
C2354       C  0.48603895  0.12741133  0.62859311     0.14900
C2355       C  0.47302357  0.11328902  0.64119199     0.01800
C2356       C  0.45037490  0.11407969  0.63910554    -0.16000
C2357       C  0.44027321  0.12922496  0.62528987    -0.10800
C2358       C  0.45333647  0.14355853  0.61286145     0.08500
C2359       C  0.51006620  0.12619876  0.62891812     0.09600
S2360       S  0.48429202  0.09412408  0.66038729    -0.25100
H2361       H  0.44050429  0.10321571  0.64890173     0.19800
S2362       S  0.44228873  0.16290994  0.59372889    -0.30800
H2363       H  0.48602944  0.15331343  0.60498219     0.10200
C2364       C  0.52124519  0.10891468  0.61881766     0.03400
C2365       C  0.54403689  0.10827749  0.61971402    -0.13100
C2366       C  0.55594531  0.12465192  0.63039884    -0.08800
C2367       C  0.54456454  0.14176209  0.64086897     0.06800
C2368       C  0.52182396  0.14252207  0.63968179    -0.13900
S2369       S  0.50651606  0.08807199  0.60415372    -0.30800
H2370       H  0.55265819  0.09522329  0.61159564     0.11100
S2371       S  0.55786899  0.16248552  0.65687717    -0.27900
H2372       H  0.51315439  0.15564770  0.64768024     0.08300
H2373       H  0.42411982  0.15039971  0.58769913     0.26700
H2374       H  0.52470938  0.07543164  0.59835544     0.21500
H2375       H  0.57330012  0.14827311  0.66608578     0.26800
H2376       H  0.50291174  0.10637954  0.66561694     0.15700
C2377       C  0.59827858  0.12753945  0.22911682    -0.11600
C2378       C  0.61577469  0.11899535  0.24096761     0.14900
C2379       C  0.63387490  0.11037383  0.22978912     0.01800
C2380       C  0.63423270  0.11081039  0.20703754    -0.16000
C2381       C  0.61678390  0.11946630  0.19498928    -0.10800
C2382       C  0.59868849  0.12820544  0.20635781     0.08500
C2383       C  0.61500559  0.12012561  0.26496664     0.09600
S2384       S  0.65710756  0.09882094  0.24357261    -0.25100
H2385       H  0.64822631  0.10406300  0.19868284     0.19800
S2386       S  0.57626443  0.14171643  0.19310864    -0.30800
H2387       H  0.58450189  0.13442677  0.23772927     0.10200
C2388       C  0.62636937  0.13634714  0.27653907     0.03400
C2389       C  0.62548296  0.13655334  0.29935154    -0.13100
C2390       C  0.61336596  0.12089589  0.31083538    -0.08800
C2391       C  0.60125653  0.10521054  0.29900968     0.06800
C2392       C  0.60241748  0.10486690  0.27627844    -0.13900
S2393       S  0.64187224  0.15682882  0.26221290    -0.30800
H2394       H  0.63459064  0.14871800  0.30830244     0.11100
S2395       S  0.58325040  0.08585607  0.31176367    -0.27900
H2396       H  0.59330172  0.09270708  0.26728616     0.08300
H2397       H  0.58965111  0.15386231  0.17902149     0.26700
H2398       H  0.64988339  0.16765576  0.28074427     0.21500
H2399       H  0.57557428  0.10050022  0.32763144     0.26800
H2400       H  0.64583183  0.09146370  0.26205210     0.15700
C2401       C  0.51362114  0.11121601  0.39181823    -0.11600
C2402       C  0.50306690  0.12683243  0.37893522     0.14900
C2403       C  0.51564479  0.14217163  0.36731203     0.01800
C2404       C  0.53839316  0.14124703  0.36844170    -0.16000
C2405       C  0.54900492  0.12509956  0.38066851    -0.10800
C2406       C  0.53635973  0.11031172  0.39298735     0.08500
C2407       C  0.47894873  0.12708938  0.37846453     0.09600
S2408       S  0.50369639  0.16296237  0.35035865    -0.25100
H2409       H  0.54789004  0.15278679  0.35906439     0.19800
S2410       S  0.54815329  0.09064741  0.41130721    -0.30800
H2411       H  0.50402082  0.09981587  0.40126517     0.10200
C2412       C  0.46698624  0.11014918  0.36859963     0.03400
C2413       C  0.44416111  0.11113817  0.36836992    -0.13100
C2414       C  0.43298187  0.12870458  0.37786101    -0.08800
C2415       C  0.44510206  0.14532600  0.38832505     0.06800
C2416       C  0.46786675  0.14446488  0.38824550    -0.13900
S2417       S  0.48079845  0.08767541  0.35557469    -0.30800
H2418       H  0.43497709  0.09836231  0.36040155     0.11100
S2419       S  0.43262902  0.16741571  0.40309746    -0.27900
H2420       H  0.47706067  0.15725570  0.39622518     0.08300
H2421       H  0.56518611  0.10431744  0.41829751     0.26700
H2422       H  0.46202924  0.07574422  0.35006171     0.21500
H2423       H  0.41638294  0.15436280  0.41262693     0.26800
H2424       H  0.48540606  0.15075847  0.34395380     0.15700
C2425       C  0.60674771  0.10599922  0.52653757    -0.11600
C2426       C  0.62146807  0.11911704  0.51501761     0.14900
C2427       C  0.63584153  0.13282825  0.52660411     0.01800
C2428       C  0.63492315  0.13344236  0.54933660    -0.16000
C2429       C  0.62035904  0.12019155  0.56091549    -0.10800
C2430       C  0.60596267  0.10644609  0.54930509     0.08500
C2431       C  0.62037370  0.11940401  0.49095628     0.09600
S2432       S  0.65595309  0.14961831  0.51333572    -0.25100
H2433       H  0.64612656  0.14390865  0.55810076     0.19800
S2434       S  0.58547469  0.09002819  0.56245662    -0.30800
H2435       H  0.59540968  0.09576175  0.51767915     0.10200
C2436       C  0.62701574  0.10144204  0.47838086     0.03400
C2437       C  0.62570034  0.10260499  0.45562991    -0.13100
C2438       C  0.61784717  0.12137540  0.44508114    -0.08800
C2439       C  0.61093177  0.13930812  0.45786768     0.06800
C2440       C  0.61233610  0.13806164  0.48061401    -0.13900
S2441       S  0.63784121  0.07732833  0.49127481    -0.30800
H2442       H  0.63114723  0.08889270  0.44599199     0.11100
S2443       S  0.59915098  0.16343328  0.44579167    -0.27900
H2444       H  0.60691487  0.15159233  0.49053365     0.08300
H2445       H  0.58092715  0.10517171  0.57903028     0.26700
H2446       H  0.64029988  0.06489013  0.47220155     0.21500
H2447       H  0.59877945  0.17623023  0.46478569     0.26800
H2448       H  0.65935632  0.13568345  0.49549165     0.15700
C2449       C  0.14179550  0.62181496  0.76659145    -0.11600
C2450       C  0.12735456  0.63581234  0.75581714     0.14900
C2451       C  0.11324476  0.64912502  0.76814584     0.01800
C2452       C  0.11344596  0.64766314  0.79091068    -0.16000
C2453       C  0.12763163  0.63334783  0.80171752    -0.10800
C2454       C  0.14233352  0.62068340  0.78932528     0.08500
C2455       C  0.12689011  0.63539085  0.73173222     0.09600
S2456       S  0.09449207  0.66805272  0.75581082    -0.25100
H2457       H  0.10223072  0.65757172  0.80025579     0.19800
S2458       S  0.16270887  0.60341023  0.80149966    -0.30800
H2459       H  0.15282981  0.61176800  0.75717301     0.10200
C2460       C  0.14349240  0.64515705  0.71929565     0.03400
C2461       C  0.14300741  0.64334716  0.69653044    -0.13100
C2462       C  0.12621609  0.63197096  0.68589309    -0.08800
C2463       C  0.10979963  0.62187496  0.69853897     0.06800
C2464       C  0.11014885  0.62398647  0.72122323    -0.13900
S2465       S  0.16501293  0.66032010  0.73243539    -0.30800
H2466       H  0.15561784  0.65106849  0.68694857     0.11100
S2467       S  0.08880096  0.60493221  0.68693639    -0.27900
H2468       H  0.09763171  0.61610610  0.73084345     0.08300
H2469       H  0.16702794  0.61735084  0.81916949     0.26700
H2470       H  0.17564583  0.66706740  0.71331705     0.21500
H2471       H  0.10248228  0.59523065  0.67132453     0.26800
H2472       H  0.10707055  0.67234586  0.73719518     0.15700
C2473       C  0.13981868  0.77944051  0.60177303    -0.11600
C2474       C  0.13114231  0.76770038  0.61931742     0.14900
C2475       C  0.12351759  0.77909791  0.63775348     0.01800
C2476       C  0.12459104  0.80183352  0.63818252    -0.16000
C2477       C  0.13286334  0.81375395  0.62048293    -0.10800
C2478       C  0.14096472  0.80222653  0.60220125     0.08500
C2479       C  0.13081687  0.74358850  0.61827655     0.09600
S2480       S  0.11189026  0.76565722  0.66113553    -0.25100
H2481       H  0.11834863  0.81030143  0.65234302     0.19800
S2482       S  0.15395223  0.81533943  0.57940585    -0.30800
H2483       H  0.14611790  0.77071924  0.58778682     0.10200
C2484       C  0.11667911  0.73239000  0.60404498     0.03400
C2485       C  0.11600864  0.70954721  0.60449434    -0.13100
C2486       C  0.12928980  0.69766030  0.61878666    -0.08800
C2487       C  0.14342650  0.70896767  0.63304874     0.06800
C2488       C  0.14423485  0.73172636  0.63243049    -0.13900
S2489       S  0.09902317  0.74718526  0.58576721    -0.30800
H2490       H  0.10520139  0.70086197  0.59358884     0.11100
S2491       S  0.15984029  0.69543036  0.65327674    -0.27900
H2492       H  0.15495716  0.74032526  0.64351474     0.08300
H2493       H  0.16595715  0.83000417  0.59232058     0.26700
H2494       H  0.08911348  0.72890856  0.57613167     0.21500
H2495       H  0.14407165  0.67962449  0.65838130     0.26800
H2496       H  0.10266867  0.74813433  0.64963357     0.15700
C2497       C  0.11792617  0.64424476  0.26577749    -0.11600
C2498       C  0.13334401  0.63118020  0.25516934     0.14900
C2499       C  0.14920305  0.62015800  0.26764184     0.01800
C2500       C  0.14873034  0.62170212  0.29038967    -0.16000
C2501       C  0.13296190  0.63432623  0.30113904    -0.10800
C2502       C  0.11772887  0.64617287  0.28851525     0.08500
C2503       C  0.13234391  0.62919599  0.23113088     0.09600
S2504       S  0.17014505  0.60347725  0.25556098    -0.25100
H2505       H  0.16061053  0.61266189  0.29979157     0.19800
S2506       S  0.09818855  0.66463674  0.30029226    -0.30800
H2507       H  0.10600125  0.65308363  0.25623615     0.10200
C2508       C  0.12336758  0.61068346  0.22095858     0.03400
C2509       C  0.12308106  0.60935458  0.19812112    -0.13100
C2510       C  0.13171918  0.62614412  0.18515298    -0.08800
C2511       C  0.14128471  0.64441357  0.19558023     0.06800
C2512       C  0.14103813  0.64592743  0.21832449    -0.13900
S2513       S  0.11181041  0.58900200  0.23710273    -0.30800
H2514       H  0.11568900  0.59536620  0.19033345     0.11100
S2515       S  0.15521112  0.66575468  0.18101824    -0.27900
H2516       H  0.14831994  0.65996950  0.22617149     0.08300
H2517       H  0.11228096  0.67236107  0.31664199     0.26700
H2518       H  0.10732714  0.57478296  0.21970964     0.21500
H2519       H  0.16522689  0.65157134  0.16605635     0.26800
H2520       H  0.17185431  0.61512270  0.23596071     0.15700
C2521       C  0.14222714  0.64174058  0.47129115    -0.11600
C2522       C  0.12822762  0.62672294  0.48129593     0.14900
C2523       C  0.11463246  0.61355412  0.46821209     0.01800
C2524       C  0.11530826  0.61575143  0.44551438    -0.16000
C2525       C  0.12949192  0.63063204  0.43548089    -0.10800
C2526       C  0.14282803  0.64401357  0.44863203     0.08500
C2527       C  0.12723335  0.62638947  0.50540208     0.09600
S2528       S  0.09622000  0.59361521  0.47943870    -0.25100
H2529       H  0.10499696  0.60542691  0.43556847     0.19800
S2530       S  0.15988793  0.66521103  0.43761097    -0.30800
H2531       H  0.15231362  0.65223440  0.48129041     0.10200
C2532       C  0.14438693  0.61783610  0.51797596     0.03400
C2533       C  0.14346656  0.61927233  0.54076365    -0.13100
C2534       C  0.12578897  0.62927209  0.55137721    -0.08800
C2535       C  0.10867997  0.63800916  0.53854104     0.06800
C2536       C  0.10945818  0.63614148  0.51583195    -0.13900
S2537       S  0.16722986  0.60465708  0.50497549    -0.30800
H2538       H  0.15652416  0.61236185  0.55037060     0.11100
S2539       S  0.08609873  0.65297370  0.54980730    -0.27900
H2540       H  0.09645420  0.64307361  0.50612088     0.08300
H2541       H  0.14550506  0.67100321  0.42074321     0.26700
H2542       H  0.17932800  0.60075319  0.52402429     0.21500
H2543       H  0.09905362  0.66500109  0.56441632     0.26800
H2544       H  0.10843730  0.58918270  0.49827225     0.15700
C2545       C  0.11234380  0.23383420  0.63620258    -0.11600
C2546       C  0.12370289  0.24367127  0.61904180     0.14900
C2547       C  0.13361997  0.23047318  0.60305200     0.01800
C2548       C  0.13195095  0.20778648  0.60463326    -0.16000
C2549       C  0.12093041  0.19785347  0.62206098    -0.10800
C2550       C  0.11057492  0.21117643  0.63773399     0.08500
C2551       C  0.12449591  0.26773084  0.61831551     0.09600
S2552       S  0.14876436  0.24144441  0.58039878    -0.25100
H2553       H  0.13992241  0.19779318  0.59247271     0.19800
S2554       S  0.09398011  0.20042778  0.65941909    -0.30800
H2555       H  0.10440965  0.24395549  0.64828793     0.10200
C2556       C  0.11059801  0.27979591  0.60462749     0.03400
C2557       C  0.11096448  0.30263774  0.60557880    -0.13100
C2558       C  0.12502839  0.31363164  0.61989046    -0.08800
C2559       C  0.13883836  0.30140836  0.63368147     0.06800
C2560       C  0.13852605  0.27865700  0.63261899    -0.13900
S2561       S  0.09211003  0.26608360  0.58630761    -0.30800
H2562       H  0.10035500  0.31200811  0.59507437     0.11100
S2563       S  0.15625327  0.31375331  0.65386044    -0.27900
H2564       H  0.14894362  0.26934128  0.64339209     0.08300
H2565       H  0.08488660  0.18354115  0.64685119     0.26700
H2566       H  0.08296211  0.28494793  0.57709969     0.21500
H2567       H  0.14138682  0.33016752  0.65969903     0.26800
H2568       H  0.15503363  0.26103311  0.59041969     0.15700
C2569       C  0.10934014  0.36825167  0.72398572    -0.11600
C2570       C  0.12694776  0.37775518  0.73494069     0.14900
C2571       C  0.14445440  0.38638540  0.72284092     0.01800
C2572       C  0.14376118  0.38569087  0.70007626    -0.16000
C2573       C  0.12585199  0.37670909  0.68894917    -0.10800
C2574       C  0.10871929  0.36732364  0.70124230     0.08500
C2575       C  0.12665034  0.37810188  0.75899556     0.09600
S2576       S  0.16801109  0.39868391  0.73541302    -0.25100
H2577       H  0.15710246  0.39281129  0.69099504     0.19800
S2578       S  0.08612977  0.35298788  0.68914058    -0.30800
H2579       H  0.09610988  0.36119195  0.73328923     0.10200
C2580       C  0.11399998  0.39341045  0.77045002     0.03400
C2581       C  0.11411826  0.39325240  0.79327299    -0.13100
C2582       C  0.12654725  0.37798478  0.80489969    -0.08800
C2583       C  0.13954050  0.36289585  0.79328081     0.06800
C2584       C  0.13924769  0.36297354  0.77050098    -0.13900
S2585       S  0.09797130  0.41334049  0.75594143    -0.30800
H2586       H  0.10424737  0.40486827  0.80212300     0.11100
S2587       S  0.15762870  0.34389121  0.80645152    -0.27900
H2588       H  0.14917133  0.35138202  0.76164099     0.08300
H2589       H  0.09896144  0.34227383  0.67346345     0.26700
H2590       H  0.08863867  0.42324596  0.77435323     0.21500
H2591       H  0.16425128  0.35846979  0.82284825     0.26800
H2592       H  0.15737324  0.40643359  0.75411322     0.15700
C2593       C  0.10745979  0.48238873  0.63482511    -0.11600
C2594       C  0.12267385  0.49364332  0.62207519     0.14900
C2595       C  0.13883934  0.48183737  0.61078483     0.01800
C2596       C  0.13927510  0.45910493  0.61227500    -0.16000
C2597       C  0.12378834  0.44773306  0.62467747    -0.10800
C2598       C  0.10801895  0.45966222  0.63650206     0.08500
C2599       C  0.12221791  0.51773587  0.62205352     0.09600
S2600       S  0.15925374  0.49479441  0.59411093    -0.25100
H2601       H  0.15148240  0.45019102  0.60317430     0.19800
S2602       S  0.08905941  0.44704515  0.65501296    -0.30800
H2603       H  0.09542481  0.49145418  0.64400758     0.10200
C2604       C  0.10611680  0.52948205  0.61068479     0.03400
C2605       C  0.10677243  0.55234939  0.61071021    -0.13100
C2606       C  0.12315821  0.56368655  0.62199740    -0.08800
C2607       C  0.13866204  0.55174710  0.63417614     0.06800
C2608       C  0.13822805  0.52899435  0.63376205    -0.13900
S2609       S  0.08526718  0.51532876  0.59549639    -0.30800
H2610       H  0.09480902  0.56142772  0.60148485     0.11100
S2611       S  0.15872993  0.56446671  0.65144691    -0.27900
H2612       H  0.15029042  0.51993594  0.64291988     0.08300
H2613       H  0.10381683  0.43121506  0.66255204     0.26700
H2614       H  0.07405851  0.53395945  0.58831034     0.21500
H2615       H  0.14477082  0.58108997  0.65879204     0.26800
H2616       H  0.14644153  0.51267591  0.58781124     0.15700
C2617       C  0.11030574  0.37283857  0.26968494    -0.11600
C2618       C  0.12673157  0.38461693  0.25911955     0.14900
C2619       C  0.14271868  0.39546641  0.27159891     0.01800
C2620       C  0.14193343  0.39421135  0.29433714    -0.16000
C2621       C  0.12535993  0.38259345  0.30500025    -0.10800
C2622       C  0.10961621  0.37142264  0.29239292     0.08500
C2623       C  0.12708291  0.38448815  0.23507210     0.09600
S2624       S  0.16457107  0.41104496  0.25961652    -0.25100
H2625       H  0.15411890  0.40279866  0.30379865     0.19800
S2626       S  0.08904053  0.35406460  0.30412189    -0.30800
H2627       H  0.09826278  0.36417558  0.26010357     0.10200
C2628       C  0.14062534  0.37012497  0.22341851     0.03400
C2629       C  0.13998788  0.37013627  0.20058745    -0.13100
C2630       C  0.12606331  0.38424947  0.18917900    -0.08800
C2631       C  0.11213586  0.39826903  0.20102172     0.06800
C2632       C  0.11294275  0.39836154  0.22378116    -0.13900
S2633       S  0.15850840  0.35163921  0.23766923    -0.30800
H2634       H  0.15055972  0.35930513  0.19155367     0.11100
S2635       S  0.09214193  0.41548303  0.18817380    -0.27900
H2636       H  0.10221474  0.40907602  0.23280662     0.08300
H2637       H  0.10267089  0.34555523  0.32045930     0.26700
H2638       H  0.16788555  0.34208830  0.21909308     0.21500
H2639       H  0.08667999  0.40030186  0.17191404     0.26800
H2640       H  0.15401163  0.41618329  0.24000328     0.15700
C2641       C  0.14167049  0.48480372  0.38342001    -0.11600
C2642       C  0.12743888  0.49598488  0.36953411     0.14900
C2643       C  0.11215291  0.48418802  0.35705804     0.01800
C2644       C  0.11143109  0.46149962  0.35874363    -0.16000
C2645       C  0.12585783  0.45019749  0.37239635    -0.10800
C2646       C  0.14085724  0.46210004  0.38521885     0.08500
C2647       C  0.12820957  0.52000247  0.36919805     0.09600
S2648       S  0.09295023  0.49707708  0.33894363    -0.25100
H2649       H  0.09980965  0.45254924  0.34891276     0.19800
S2650       S  0.15843295  0.44948145  0.40506091    -0.30800
H2651       H  0.15308959  0.49390119  0.39335229     0.10200
C2652       C  0.11403363  0.53250078  0.38215360     0.03400
C2653       C  0.11484629  0.55528029  0.38088643    -0.13100
C2654       C  0.12968889  0.56578584  0.36702726    -0.08800
C2655       C  0.14377791  0.55313417  0.35394314     0.06800
C2656       C  0.14310549  0.53040557  0.35541361    -0.13900
S2657       S  0.09516091  0.51939159  0.40050021    -0.30800
H2658       H  0.10414402  0.56498631  0.39098678     0.11100
S2659       S  0.16210253  0.56492098  0.33428167    -0.27900
H2660       H  0.15383286  0.52071405  0.34529985     0.08300
H2661       H  0.14316427  0.43369400  0.41161436     0.26700
H2662       H  0.08652740  0.53854931  0.40961153     0.21500
H2663       H  0.14808168  0.58201060  0.32828520     0.26800
H2664       H  0.10598727  0.51506264  0.33351977     0.15700
C2665       C  0.13866426  0.39465248  0.51976788    -0.11600
C2666       C  0.12031854  0.38657929  0.50885394     0.14900
C2667       C  0.10271980  0.37821704  0.52105015     0.01800
C2668       C  0.10394666  0.37804620  0.54379532    -0.16000
C2669       C  0.12253681  0.38565433  0.55484017    -0.10800
C2670       C  0.13985501  0.39462827  0.54250629     0.08500
C2671       C  0.12059294  0.38624682  0.48477803     0.09600
S2672       S  0.07849477  0.36698900  0.50870760    -0.25100
H2673       H  0.09046987  0.37122240  0.55290457     0.19800
S2674       S  0.16350873  0.40715839  0.55457273    -0.30800
H2675       H  0.15210212  0.40127558  0.51043972     0.10200
C2676       C  0.10713733  0.39993298  0.47219139     0.03400
C2677       C  0.10771916  0.39831731  0.44940338    -0.13100
C2678       C  0.12173932  0.38354697  0.43898101    -0.08800
C2679       C  0.13522005  0.36993679  0.45172116     0.06800
C2680       C  0.13466641  0.37161476  0.47438827    -0.13900
S2681       S  0.08980469  0.41988632  0.48508287    -0.30800
H2682       H  0.09759081  0.40892187  0.43962257     0.11100
S2683       S  0.15266628  0.34936780  0.44016835    -0.27900
H2684       H  0.14492385  0.36102168  0.48408310     0.08300
H2685       H  0.15159367  0.41834167  0.57063833     0.26700
H2686       H  0.08063592  0.42833348  0.46587565     0.21500
H2687       H  0.13802873  0.34340877  0.42357330     0.26800
H2688       H  0.08836127  0.35968072  0.48941946     0.15700
C2689       C  0.72868826  0.85962460  0.39354280    -0.11600
C2690       C  0.74005344  0.87216520  0.37822905     0.14900
C2691       C  0.72826356  0.88475482  0.36301424     0.01800
C2692       C  0.70545806  0.88448989  0.36344618    -0.16000
C2693       C  0.69407278  0.87185108  0.37868721    -0.10800
C2694       C  0.70589706  0.85943723  0.39403859     0.08500
C2695       C  0.76413630  0.87094529  0.37792205     0.09600
S2696       S  0.74129422  0.90112958  0.34241284    -0.25100
H2697       H  0.69650399  0.89399985  0.35158302     0.19800
S2698       S  0.69290859  0.84350227  0.41498706    -0.30800
H2699       H  0.73767955  0.84992918  0.40522525     0.10200
C2700       C  0.77695211  0.88151406  0.39377202     0.03400
C2701       C  0.79974718  0.87985088  0.39277752    -0.13100
C2702       C  0.80999524  0.86776692  0.37625895    -0.08800
C2703       C  0.79695321  0.85661992  0.36084183     0.06800
C2704       C  0.77427558  0.85859278  0.36166906    -0.13900
S2705       S  0.76428497  0.89778699  0.41473182    -0.30800
H2706       H  0.80965031  0.88846769  0.40455602     0.11100
S2707       S  0.80809987  0.83882297  0.34033161    -0.27900
H2708       H  0.76438304  0.85011630  0.34975110     0.08300
H2709       H  0.67566125  0.85814141  0.41852056     0.26700
H2710       H  0.78353746  0.90333808  0.42584871     0.21500
H2711       H  0.82465405  0.83039520  0.35375395     0.26800
H2712       H  0.76041933  0.90552819  0.35419110     0.15700
C2713       C  0.88089839  0.76586318  0.35569624    -0.11600
C2714       C  0.87619660  0.75566815  0.37554437     0.14900
C2715       C  0.87303290  0.76852493  0.39429874     0.01800
C2716       C  0.87426475  0.79120312  0.39271217    -0.16000
C2717       C  0.87852794  0.80163833  0.37274846    -0.10800
C2718       C  0.88242562  0.78855086  0.35411290     0.08500
C2719       C  0.87562680  0.73158628  0.37628931     0.09600
S2720       S  0.86709697  0.75706266  0.42068028    -0.25100
H2721       H  0.87136967  0.80076367  0.40724919     0.19800
S2722       S  0.89047471  0.79940227  0.32809759    -0.30800
H2723       H  0.88389149  0.75597511  0.34138512     0.10200
C2724       C  0.85887547  0.71970439  0.36603814     0.03400
C2725       C  0.85919587  0.69688824  0.36680841    -0.13100
C2726       C  0.87586196  0.68566075  0.37774481    -0.08800
C2727       C  0.89220280  0.69772384  0.38867751     0.06800
C2728       C  0.89211065  0.72046788  0.38747934    -0.13900
S2729       S  0.83684573  0.73360556  0.35236919    -0.30800
H2730       H  0.84654107  0.68772647  0.35862253     0.11100
S2731       S  0.91296998  0.68529154  0.40529673    -0.27900
H2732       H  0.90479455  0.72963693  0.39565564     0.08300
H2733       H  0.90614662  0.81357941  0.33701281     0.26700
H2734       H  0.82517793  0.71487663  0.34619071     0.21500
H2735       H  0.89925967  0.66915983  0.41402302     0.26800
H2736       H  0.85573538  0.73873381  0.41297818     0.15700
C2737       C  0.87170338  0.22095806  0.39549749    -0.11600
C2738       C  0.86473632  0.23179053  0.37670746     0.14900
C2739       C  0.85804285  0.21959186  0.35845275     0.01800
C2740       C  0.85860240  0.19685137  0.35933616    -0.16000
C2741       C  0.86530540  0.18578345  0.37824723    -0.10800
C2742       C  0.87192914  0.19821518  0.39657152     0.08500
C2743       C  0.86523432  0.25582543  0.37648642     0.09600
S2744       S  0.84863366  0.23204222  0.33357653    -0.25100
H2745       H  0.85341929  0.18774728  0.34513552     0.19800
S2746       S  0.88192530  0.18630647  0.42139713    -0.30800
H2747       H  0.87707690  0.23035507  0.40944746     0.10200
C2748       C  0.84960192  0.26813443  0.38785754     0.03400
C2749       C  0.85068843  0.29092122  0.38726561    -0.13100
C2750       C  0.86716581  0.30166744  0.37559080    -0.08800
C2751       C  0.88260333  0.28917705  0.36389122     0.06800
C2752       C  0.88159298  0.26643893  0.36467351    -0.13900
S2753       S  0.82808735  0.25479511  0.40282973    -0.30800
H2754       H  0.83883433  0.30042883  0.39619588     0.11100
S2755       S  0.90333663  0.30112146  0.34689831    -0.27900
H2756       H  0.89346090  0.25690239  0.35575396     0.08300
H2757       H  0.86139410  0.17773640  0.42691145     0.26700
H2758       H  0.81790412  0.27382552  0.41048882     0.21500
H2759       H  0.88989715  0.31781600  0.33879927     0.26800
H2760       H  0.83950184  0.25062615  0.34331936     0.15700
C2761       C  0.76425344  0.10464587  0.39126392    -0.11600
C2762       C  0.75309676  0.11586115  0.37484086     0.14900
C2763       C  0.76503945  0.12707667  0.35874421     0.01800
C2764       C  0.78783062  0.12702827  0.35958700    -0.16000
C2765       C  0.79912928  0.11590540  0.37609700    -0.10800
C2766       C  0.78703927  0.10427928  0.39192334     0.08500
C2767       C  0.72902584  0.11624621  0.37551138     0.09600
S2768       S  0.75224380  0.14236685  0.33717017    -0.25100
H2769       H  0.79681567  0.13603111  0.34736593     0.19800
S2770       S  0.79954763  0.08796078  0.41285276    -0.30800
H2771       H  0.75509337  0.09592482  0.40356483     0.10200
C2772       C  0.71644763  0.09977282  0.36566627     0.03400
C2773       C  0.69362226  0.10087809  0.36671454    -0.13100
C2774       C  0.68311753  0.11808961  0.37757088    -0.08800
C2775       C  0.69596171  0.13409736  0.38815563     0.06800
C2776       C  0.71867072  0.13318347  0.38667894    -0.13900
S2777       S  0.72953626  0.07767453  0.35135702    -0.30800
H2778       H  0.68391845  0.08850061  0.35873561     0.11100
S2779       S  0.68456168  0.15541600  0.40481241    -0.27900
H2780       H  0.72840881  0.14555535  0.39467600     0.08300
H2781       H  0.81569512  0.07928862  0.39910264     0.26700
H2782       H  0.71036499  0.06742593  0.34411127     0.21500
H2783       H  0.66849153  0.14207520  0.41425202     0.26800
H2784       H  0.73312401  0.12989980  0.33580524     0.15700
C2785       C  0.85728811  0.01651283  0.35984670    -0.11600
C2786       C  0.87034418  0.00568851  0.37509160     0.14900
C2787       C  0.88212248  0.01789643  0.39062919     0.01800
C2788       C  0.88046984  0.04061439  0.39063541    -0.16000
C2789       C  0.86775171  0.05155472  0.37510456    -0.10800
C2790       C  0.85589867  0.03924345  0.35966175     0.08500
C2791       C  0.87130203  0.98167394  0.37435376     0.09600
S2792       S  0.89948876  0.00555603  0.41086963    -0.25100
H2793       H  0.88961259  0.04986259  0.40257968     0.19800
S2794       S  0.83755506  0.05155739  0.34043553    -0.30800
H2795       H  0.84801773  0.00715341  0.34808860     0.10200
C2796       C  0.86013572  0.96874514  0.38962588     0.03400
C2797       C  0.86225331  0.94602735  0.38873646    -0.13100
C2798       C  0.87512771  0.93597518  0.37271547    -0.08800
C2799       C  0.88627211  0.94907902  0.35742898     0.06800
C2800       C  0.88399845  0.97172103  0.35823972    -0.13900
S2801       S  0.84288916  0.98117764  0.40993719    -0.30800
H2802       H  0.85358810  0.93600584  0.40036041     0.11100
S2803       S  0.90460161  0.93806651  0.33736729    -0.27900
H2804       H  0.89271038  0.98173449  0.34661638     0.08300
H2805       H  0.85466540  0.05994154  0.32772347     0.26700
H2806       H  0.83510289  0.96170367  0.41913751     0.21500
H2807       H  0.91323848  0.92205352  0.35127463     0.26800
H2808       H  0.90511321  0.98700096  0.39873407     0.15700
C2809       C  0.12256836  0.78065036  0.35642078    -0.11600
C2810       C  0.13119505  0.76980889  0.37453827     0.14900
C2811       C  0.13871804  0.78209999  0.39245094     0.01800
C2812       C  0.13705881  0.80484594  0.39198557    -0.16000
C2813       C  0.12865173  0.81586030  0.37373522    -0.10800
C2814       C  0.12131185  0.80339891  0.35574708     0.08500
C2815       C  0.13183768  0.74569252  0.37414852     0.09600
S2816       S  0.15069995  0.76983381  0.41630284    -0.25100
H2817       H  0.14287945  0.81404389  0.40587822     0.19800
S2818       S  0.10903177  0.81536663  0.33200477    -0.30800
H2819       H  0.11663874  0.77125556  0.34269691     0.10200
C2820       C  0.11706038  0.73304643  0.38631349     0.03400
C2821       C  0.11756389  0.71027474  0.38445741    -0.13100
C2822       C  0.13262704  0.69982985  0.37077428    -0.08800
C2823       C  0.14744453  0.71261076  0.35862830     0.06800
C2824       C  0.14693417  0.73532653  0.36052826    -0.13900
S2825       S  0.09716173  0.74588325  0.40373476    -0.30800
H2826       H  0.10620460  0.70052082  0.39376117     0.11100
S2827       S  0.16659894  0.70110197  0.33960530    -0.27900
H2828       H  0.15814540  0.74506776  0.35100207     0.08300
H2829       H  0.12895881  0.82398774  0.32466718     0.26700
H2830       H  0.08955065  0.72669307  0.41365364     0.21500
H2831       H  0.15236849  0.68489283  0.33184771     0.26800
H2832       H  0.15897979  0.75123514  0.40586674     0.15700
C2833       C  0.27599587  0.89292505  0.38981540    -0.11600
C2834       C  0.26342247  0.87864201  0.37724280     0.14900
C2835       C  0.27387260  0.86268757  0.36435429     0.01800
C2836       C  0.29666957  0.86163422  0.36415451    -0.16000
C2837       C  0.30931634  0.87623109  0.37640576    -0.10800
C2838       C  0.29872293  0.89165780  0.38985154     0.08500
C2839       C  0.23948147  0.88066085  0.37832697     0.09600
S2840       S  0.25931705  0.84305248  0.34794987    -0.25100
H2841       H  0.30461135  0.84960082  0.35398297     0.19800
S2842       S  0.31314505  0.90930775  0.40838480    -0.30800
H2843       H  0.26798425  0.90484679  0.40007121     0.10200
C2844       C  0.22708152  0.86821563  0.39304511     0.03400
C2845       C  0.20431167  0.87020836  0.39302777    -0.13100
C2846       C  0.19376345  0.88454821  0.37866568    -0.08800
C2847       C  0.20641845  0.89787819  0.36480249     0.06800
C2848       C  0.22907945  0.89560064  0.36459993    -0.13900
S2849       S  0.24029499  0.84966758  0.41163047    -0.30800
H2850       H  0.19464739  0.86012978  0.40378273     0.11100
S2851       S  0.19472982  0.91864184  0.34764837    -0.27900
H2852       H  0.23872097  0.90560776  0.35373018     0.08300
H2853       H  0.32867440  0.89357505  0.41441044     0.26700
H2854       H  0.22133958  0.84290642  0.42255727     0.21500
H2855       H  0.17795169  0.92426187  0.36219786     0.26800
H2856       H  0.23913941  0.85370436  0.34700821     0.15700
C2857       C  0.97874722  0.87929856  0.35041115    -0.11600
C2858       C  0.99037558  0.87082541  0.36812465     0.14900
C2859       C  0.97884461  0.86122188  0.38550771     0.01800
C2860       C  0.95607306  0.86113671  0.38525119    -0.16000
C2861       C  0.94426471  0.86980191  0.36765348    -0.10800
C2862       C  0.95595859  0.87856798  0.34978142     0.08500
C2863       C  0.01433614  0.87376444  0.36887190     0.09600
S2864       S  0.99223989  0.84880428  0.40850216    -0.25100
H2865       H  0.94750675  0.85397490  0.39890280     0.19800
S2866       S  0.94295069  0.89027978  0.32630611    -0.30800
H2867       H  0.98751745  0.88683901  0.33709016     0.10200
C2868       C  0.02829377  0.86333419  0.35395154     0.03400
C2869       C  0.05084873  0.86669667  0.35546685    -0.13100
C2870       C  0.05980572  0.87997542  0.37183443    -0.08800
C2871       C  0.04574759  0.89054353  0.38666459     0.06800
C2872       C  0.02319065  0.88740988  0.38491098    -0.13900
S2873       S  0.01751265  0.84498884  0.33361901    -0.30800
H2874       H  0.06163833  0.85846568  0.34421945     0.11100
S2875       S  0.05618435  0.90880001  0.40725541    -0.27900
H2876       H  0.01228342  0.89560728  0.39606817     0.08300
H2877       H  0.93428259  0.87017043  0.31952026     0.26700
H2878       H  0.03760811  0.83895154  0.32444609     0.21500
H2879       H  0.03614726  0.91348852  0.41729755     0.26800
H2880       H  0.01088723  0.84204952  0.39707184     0.15700
C2881       C  0.26455390  0.14713895  0.38888428    -0.11600
C2882       C  0.25298544  0.13195182  0.37637041     0.14900
C2883       C  0.26445721  0.11583340  0.36467540     0.01800
C2884       C  0.28724247  0.11557691  0.36537752    -0.16000
C2885       C  0.29888120  0.13089339  0.37776129    -0.10800
C2886       C  0.28728373  0.14655672  0.39002115     0.08500
C2887       C  0.22897023  0.13329669  0.37605246     0.09600
S2888       S  0.25104859  0.09530736  0.34845590    -0.25100
H2889       H  0.29596899  0.10343828  0.35600392     0.19800
S2890       S  0.30039204  0.16551615  0.40823002    -0.30800
H2891       H  0.25574165  0.15929340  0.39816190     0.10200
C2892       C  0.21652489  0.12613104  0.39388717     0.03400
C2893       C  0.19378357  0.12755468  0.39297607    -0.13100
C2894       C  0.18312684  0.13624826  0.37466602    -0.08800
C2895       C  0.19582128  0.14418935  0.35712616     0.06800
C2896       C  0.21853115  0.14226737  0.35787112    -0.13900
S2897       S  0.22960202  0.11446926  0.41750939    -0.30800
H2898       H  0.18424029  0.12139233  0.40644115     0.11100
S2899       S  0.18427934  0.15789448  0.33389575    -0.27900
H2900       H  0.22820318  0.14820722  0.34436846     0.08300
H2901       H  0.31640848  0.15077227  0.41537927     0.26700
H2902       H  0.21065572  0.11192219  0.43011271     0.21500
H2903       H  0.16873361  0.16949984  0.34609107     0.26800
H2904       H  0.23179202  0.09425148  0.36075046     0.15700
C2905       C  0.10084745  0.23589013  0.38368154    -0.11600
C2906       C  0.11479153  0.24621865  0.36885297     0.14900
C2907       C  0.12755129  0.23347857  0.35461210     0.01800
C2908       C  0.12661560  0.21076779  0.35598375    -0.16000
C2909       C  0.11295665  0.20038173  0.37107871    -0.10800
C2910       C  0.09952419  0.21316684  0.38470217     0.08500
C2911       C  0.11646113  0.27023553  0.36935575     0.09600
S2912       S  0.14545041  0.24521325  0.33451363    -0.25100
H2913       H  0.13686900  0.20111495  0.34535069     0.19800
S2914       S  0.07982814  0.20153619  0.40307341    -0.30800
H2915       H  0.09086449  0.24563869  0.39448218     0.10200
C2916       C  0.09939419  0.28360966  0.36195847     0.03400
C2917       C  0.10170623  0.30630938  0.36296090    -0.13100
C2918       C  0.12079467  0.31603518  0.37118396    -0.08800
C2919       C  0.13787454  0.30236764  0.37857764     0.06800
C2920       C  0.13544957  0.27974407  0.37766140    -0.13900
S2921       S  0.07489709  0.27176328  0.35073848    -0.30800
H2922       H  0.08861763  0.31652899  0.35706672     0.11100
S2923       S  0.16272185  0.31254552  0.39032194    -0.27900
H2924       H  0.14848666  0.26939748  0.38353157     0.08300
H2925       H  0.07425947  0.18408833  0.38930948     0.26700
H2926       H  0.06405625  0.29146211  0.34640039     0.21500
H2927       H  0.17013619  0.32089906  0.37032713     0.26800
H2928       H  0.13291840  0.26399031  0.33073840     0.15700
C2929       C  0.01497533  0.11422194  0.36259950    -0.11600
C2930       C  0.00323411  0.12878197  0.37567487     0.14900
C2931       C  0.01458512  0.14386840  0.38881420     0.01800
C2932       C  0.03738858  0.14390727  0.38871124    -0.16000
C2933       C  0.04915482  0.12952344  0.37539174    -0.10800
C2934       C  0.03774105  0.11429673  0.36245207     0.08500
C2935       C  0.97923147  0.12691899  0.37604115     0.09600
S2936       S  0.00098397  0.16355439  0.40585659    -0.25100
H2937       H  0.04600937  0.15559234  0.39874600     0.19800
S2938       S  0.05125059  0.09373183  0.34644542    -0.30800
H2939       H  0.00629748  0.10234661  0.35282605     0.10200
C2940       C  0.96645553  0.13407038  0.35842665     0.03400
C2941       C  0.94380303  0.13125303  0.35909367    -0.13100
C2942       C  0.93357447  0.12118516  0.37695175    -0.08800
C2943       C  0.94666519  0.11353876  0.39436468     0.06800
C2944       C  0.96921716  0.11683081  0.39385408    -0.13900
S2945       S  0.97898078  0.14735318  0.33538142    -0.30800
H2946       H  0.93398092  0.13728323  0.34576507     0.11100
S2947       S  0.93596944  0.09841426  0.41710630    -0.27900
H2948       H  0.97916019  0.11091650  0.40717938     0.08300
H2949       H  0.06813879  0.09015884  0.36150240     0.26700
H2950       H  0.95996936  0.14935785  0.32276141     0.21500
H2951       H  0.92176110  0.08572026  0.40433989     0.26800
H2952       H  0.98196483  0.16529609  0.39324643     0.15700
C2953       C  0.11592482  0.98539794  0.39397718    -0.11600
C2954       C  0.12591475  0.99667991  0.37687962     0.14900
C2955       C  0.13633795  0.98483792  0.36017347     0.01800
C2956       C  0.13583120  0.96204360  0.36053142    -0.16000
C2957       C  0.12560927  0.95057813  0.37751783    -0.10800
C2958       C  0.11556003  0.96253782  0.39451499     0.08500
C2959       C  0.12415494  0.02074865  0.37647513     0.09600
S2960       S  0.15047745  0.99781206  0.33793523    -0.25100
H2961       H  0.14381966  0.95317761  0.34753880     0.19800
S2962       S  0.10111589  0.94914429  0.41637189    -0.30800
H2963       H  0.10794157  0.99464811  0.40668112     0.10200
C2964       C  0.11006344  0.03141734  0.36184608     0.03400
C2965       C  0.10883502  0.05422433  0.36204291    -0.13100
C2966       C  0.12116375  0.06664128  0.37679492    -0.08800
C2967       C  0.13536146  0.05585887  0.39137974     0.06800
C2968       C  0.13646028  0.03307037  0.39126187    -0.13900
S2969       S  0.09311490  0.01595488  0.34340686    -0.30800
H2970       H  0.09796517  0.06244070  0.35086788     0.11100
S2971       S  0.15334020  0.07020345  0.40964916    -0.27900
H2972       H  0.14736485  0.02486678  0.40244611     0.08300
H2973       H  0.09311749  0.96800800  0.42660069     0.26700
H2974       H  0.08292341  0.03385017  0.33339648     0.21500
H2975       H  0.15851807  0.08683735  0.39478359     0.26800
H2976       H  0.15624472  0.01685222  0.34926127     0.15700
loop_ 
_geom_bond_atom_site_label_1 
_geom_bond_atom_site_label_2 
_geom_bond_distance 
_geom_bond_site_symmetry_2 
_ccdc_geom_bond_type 
O1           Cu9   2.012       .  S
O1           C11   1.279       .  A
O2           Cu9   2.011       .  S
O2           C12   1.278       .  A
O3           Cu9   2.001       .  S
O3           C13   1.277       .  A
O4           Cu9   2.004       .  S
O4           C14   1.277       .  A
O5          Cu10   2.012       .  S
O5           C14   1.278       .  A
O6          Cu10   2.020       .  S
O6           C13   1.279       .  A
O7          Cu10   2.002       .  S
O7           C12   1.278       .  A
O8          Cu10   2.005       .  S
O8           C11   1.277       .  A
Cu9         Cu10   2.373       .  S
C11        C2933   1.475       .  S
C12        C2894   1.483       .  S
C13        C2966   1.480       .  S
C14        C2909   1.476       .  S
O15         Cu23   2.015       .  S
O15          C25   1.279       .  A
O16         Cu23   2.013       .  S
O16          C26   1.278       .  A
O17         Cu23   2.008       .  S
O17          C27   1.278       .  A
O18         Cu23   2.005       .  S
O18          C28   1.277       .  A
O19         Cu24   2.012       .  S
O19          C28   1.278       .  A
O20         Cu24   2.013       .  S
O20          C27   1.278       .  A
O21         Cu24   2.011       .  S
O21          C26   1.279       .  A
O22         Cu24   2.012       .  S
O22          C25   1.278       .  A
Cu23        Cu24   2.369       .  S
C25        C2957   1.489       .  S
C26        C2813   1.488       .  S
C27        C2870   1.481       .  S
C28        C2846   1.477       .  S
O29         Cu37   2.006       .  S
O29          C39   1.278       .  A
O30         Cu37   2.005       .  S
O30          C40   1.277       .  A
O31         Cu37   2.010       .  S
O31          C41   1.278       .  A
O32         Cu37   2.010       .  S
O32          C42   1.279       .  A
O33         Cu38   2.009       .  S
O33          C42   1.277       .  A
O34         Cu38   2.012       .  S
O34          C41   1.278       .  A
O35         Cu38   2.007       .  S
O35          C40   1.278       .  A
O36         Cu38   2.004       .  S
O36          C39   1.276       .  A
Cu37        Cu38   2.368       .  S
C39        C2741   1.487       .  S
C40        C2789   1.478       .  S
C41        C2765   1.484       .  S
C42        C2942   1.486       .  S
O43         Cu51   2.008       .  S
O43          C53   1.276       .  A
O44         Cu51   2.005       .  S
O44          C54   1.277       .  A
O45         Cu51   2.013       .  S
O45          C55   1.278       .  A
O46         Cu51   2.014       .  S
O46          C56   1.278       .  A
O47         Cu52   2.002       .  S
O47          C56   1.278       .  A
O48         Cu52   2.001       .  S
O48          C55   1.277       .  A
O49         Cu52   2.016       .  S
O49          C54   1.279       .  A
O50         Cu52   2.014       .  S
O50          C53   1.280       .  A
Cu51        Cu52   2.368       .  S
C53        C2861   1.488       .  S
C54        C2702   1.482       .  S
C55        C2798   1.477       .  S
C56        C2717   1.490       .  S
O57         Cu65   2.007       .  S
O57          C67   1.279       .  A
O58         Cu65   2.004       .  S
O58          C68   1.277       .  A
O59         Cu65   2.006       .  S
O59          C69   1.277       .  A
O60         Cu65   2.008       .  S
O60          C70   1.278       .  A
O61         Cu66   2.006       .  S
O61          C70   1.277       .  A
O62         Cu66   2.010       .  S
O62          C69   1.278       .  A
O63         Cu66   2.007       .  S
O63          C68   1.278       .  A
O64         Cu66   2.007       .  S
O64          C67   1.277       .  A
Cu65        Cu66   2.371       .  S
C67        C2918   1.487       .  S
C68        C2645   1.476       .  S
C69        C2621   1.479       .  S
C70        C2678   1.476       .  S
O71         Cu79   2.005       .  S
O71          C81   1.278       .  A
O72         Cu79   2.006       .  S
O72          C82   1.277       .  A
O73         Cu79   2.007       .  S
O73          C83   1.278       .  A
O74         Cu79   2.012       .  S
O74          C84   1.278       .  A
O75         Cu80   2.008       .  S
O75          C84   1.277       .  A
O76         Cu80   2.010       .  S
O76          C83   1.278       .  A
O77         Cu80   2.011       .  S
O77          C82   1.279       .  A
O78         Cu80   2.012       .  S
O78          C81   1.278       .  A
Cu79        Cu80   2.370       .  S
C81        C2669   1.486       .  S
C82        C2573   1.485       .  S
C83        C2597   1.480       .  S
C84        C2558   1.477       .  S
O85         Cu93   2.005       .  S
O85          C95   1.277       .  A
O86         Cu93   2.009       .  S
O86          C96   1.278       .  A
O87         Cu93   2.015       .  S
O87          C97   1.279       .  A
O88         Cu93   2.008       .  S
O88          C98   1.277       .  A
O89         Cu94   2.018       .  S
O89          C98   1.279       .  A
O90         Cu94   2.015       .  S
O90          C97   1.279       .  A
O91         Cu94   2.011       .  S
O91          C96   1.278       .  A
O92         Cu94   2.011       .  S
O92          C95   1.278       .  A
Cu93        Cu94   2.373       .  S
C95        C2654   1.475       .  S
C96        C2822   1.479       .  S
C97        C2501   1.485       .  S
C98        C2525   1.479       .  S
O99        Cu107   2.010       .  S
O99         C109   1.278       .  A
O100       Cu107   2.010       .  S
O100        C110   1.277       .  A
O101       Cu107   2.014       .  S
O101        C111   1.278       .  A
O102       Cu107   2.015       .  S
O102        C112   1.279       .  A
O103       Cu108   2.004       .  S
O103        C112   1.277       .  A
O104       Cu108   2.005       .  S
O104        C111   1.277       .  A
O105       Cu108   2.017       .  S
O105        C110   1.280       .  A
O106       Cu108   2.010       .  S
O106        C109   1.278       .  A
Cu107      Cu108   2.371       .  S
C109       C2462   1.482       .  S
C110       C2534   1.489       .  S
C111       C2606   1.481       .  S
C112       C2486   1.477       .  S
O113       Cu121   2.007       .  S
O113        C123   1.277       .  A
O114       Cu121   2.004       .  S
O114        C124   1.278       .  A
O115       Cu121   2.011       .  S
O115        C125   1.278       .  A
O116       Cu121   2.016       .  S
O116        C126   1.279       .  A
O117       Cu122   2.005       .  S
O117        C126   1.277       .  A
O118       Cu122   2.007       .  S
O118        C125   1.277       .  A
O119       Cu122   2.009       .  S
O119        C124   1.278       .  A
O120       Cu122   2.010       .  S
O120        C123   1.278       .  A
Cu121      Cu122   2.370       .  S
C123       C2390   1.481       .  S
C124       C2438   1.486       .  S
C125       C2405   1.480       .  S
C126       C2774   1.484       .  S
O127       Cu135   2.006       .  S
O127        C137   1.278       .  A
O128       Cu135   2.013       .  S
O128        C138   1.278       .  A
O129       Cu135   2.004       .  S
O129        C139   1.277       .  A
O130       Cu135   2.008       .  S
O130        C140   1.277       .  A
O131       Cu136   2.009       .  S
O131        C140   1.278       .  A
O132       Cu136   2.009       .  S
O132        C139   1.278       .  A
O133       Cu136   2.000       .  S
O133        C138   1.277       .  A
O134       Cu136   2.006       .  S
O134        C137   1.277       .  A
Cu135      Cu136   2.374       .  S
C137       C2366   1.480       .  S
C138       C2318   1.477       .  S
C139       C2342   1.475       .  S
C140       C2429   1.476       .  S
O141       Cu149   2.006       .  S
O141        C151   1.277       .  A
O142       Cu149   2.008       .  S
O142        C152   1.278       .  A
O143       Cu149   2.004       .  S
O143        C153   1.277       .  A
O144       Cu149   2.008       .  S
O144        C154   1.278       .  A
O145       Cu150   2.008       .  S
O145        C154   1.278       .  A
O146       Cu150   2.010       .  S
O146        C153   1.278       .  A
O147       Cu150   2.015       .  S
O147        C152   1.279       .  A
O148       Cu150   2.013       .  S
O148        C151   1.279       .  A
Cu149      Cu150   2.371       .  S
C151       C2285   1.484       .  S
C152       C2261   1.481       .  S
C153       C2885   1.477       .  S
C154       C2414   1.482       .  S
O155       Cu163   2.010       .  S
O155        C165   1.278       .  A
O156       Cu163   2.014       .  S
O156        C166   1.278       .  A
O157       Cu163   2.009       .  S
O157        C167   1.277       .  A
O158       Cu163   2.007       .  S
O158        C168   1.277       .  A
O159       Cu164   2.016       .  S
O159        C168   1.279       .  A
O160       Cu164   2.014       .  S
O160        C167   1.279       .  A
O161       Cu164   2.010       .  S
O161        C166   1.278       .  A
O162       Cu164   2.004       .  S
O162        C165   1.277       .  A
Cu163      Cu164   2.369       .  S
C165       C2357   1.475       .  S
C166       C2237   1.487       .  S
C167       C2213   1.494       .  S
C168       C2294   1.478       .  S
O169       Cu177   2.011       .  S
O169        C179   1.279       .  A
O170       Cu177   2.003       .  S
O170        C180   1.277       .  A
O171       Cu177   2.012       .  S
O171        C181   1.278       .  A
O172       Cu177   2.007       .  S
O172        C182   1.278       .  A
O173       Cu178   2.010       .  S
O173        C182   1.278       .  A
O174       Cu178   2.010       .  S
O174        C181   1.278       .  A
O175       Cu178   2.010       .  S
O175        C180   1.278       .  A
O176       Cu178   2.003       .  S
O176        C179   1.277       .  A
Cu177      Cu178   2.372       .  S
C179       C2165   1.486       .  S
C180       C2726   1.479       .  S
C181       C2150   1.476       .  S
C182       C2189   1.476       .  S
O183       Cu191   2.009       .  S
O183        C193   1.278       .  A
O184       Cu191   2.018       .  S
O184        C194   1.280       .  A
O185       Cu191   2.004       .  S
O185        C195   1.277       .  A
O186       Cu191   2.002       .  S
O186        C196   1.277       .  A
O187       Cu192   2.008       .  S
O187        C196   1.277       .  A
O188       Cu192   2.008       .  S
O188        C195   1.278       .  A
O189       Cu192   2.002       .  S
O189        C194   1.277       .  A
O190       Cu192   2.009       .  S
O190        C193   1.278       .  A
Cu191      Cu192   2.374       .  S
C193       C2093   1.482       .  S
C194       C2198   1.483       .  S
C195       C2069   1.472       .  S
C196       C2126   1.471       .  S
O197       Cu205   2.008       .  S
O197        C207   1.278       .  A
O198       Cu205   2.005       .  S
O198        C208   1.278       .  A
O199       Cu205   2.009       .  S
O199        C209   1.278       .  A
O200       Cu205   2.015       .  S
O200        C210   1.279       .  A
O201       Cu206   2.001       .  S
O201        C210   1.277       .  A
O202       Cu206   2.005       .  S
O202        C209   1.278       .  A
O203       Cu206   2.007       .  S
O203        C208   1.277       .  A
O204       Cu206   2.003       .  S
O204        C207   1.277       .  A
Cu205      Cu206   2.374       .  S
C207       C2174   1.473       .  S
C208       C2750   1.478       .  S
C209       C2045   1.476       .  S
C210       C2030   1.480       .  S
O211       Cu219   2.010       .  S
O211        C221   1.277       .  A
O212       Cu219   2.015       .  S
O212        C222   1.280       .  A
O213       Cu219   2.017       .  S
O213        C223   1.278       .  A
O214       Cu219   2.017       .  S
O214        C224   1.279       .  A
O215       Cu220   2.004       .  S
O215        C224   1.277       .  A
O216       Cu220   2.014       .  S
O216        C223   1.278       .  A
O217       Cu220   1.998       .  S
O217        C222   1.275       .  A
O218       Cu220   2.002       .  S
O218        C221   1.278       .  A
Cu219      Cu220   2.366       .  S
C221       C1997   1.492       .  S
C222       C2117   1.491       .  S
C223       C1973   1.482       .  S
C224       C2054   1.481       .  S
O225       Cu233   2.001       .  S
O225        C235   1.278       .  A
O226       Cu233   2.001       .  S
O226        C236   1.276       .  A
O227       Cu233   2.017       .  S
O227        C237   1.279       .  A
O228       Cu233   2.018       .  S
O228        C238   1.279       .  A
O229       Cu234   2.001       .  S
O229        C238   1.276       .  A
O230       Cu234   2.001       .  S
O230        C237   1.277       .  A
O231       Cu234   2.009       .  S
O231        C236   1.279       .  A
O232       Cu234   2.016       .  S
O232        C235   1.278       .  A
Cu233      Cu234   2.369       .  S
C235       C1901   1.493       .  S
C236       C1958   1.483       .  S
C237       C2837   1.479       .  S
C238       C1925   1.478       .  S
O239       Cu247   2.010       .  S
O239        C249   1.278       .  A
O240       Cu247   2.007       .  S
O240        C250   1.278       .  A
O241       Cu247   2.010       .  S
O241        C251   1.278       .  A
O242       Cu247   2.009       .  S
O242        C252   1.278       .  A
O243       Cu248   2.008       .  S
O243        C252   1.278       .  A
O244       Cu248   2.002       .  S
O244        C251   1.277       .  A
O245       Cu248   2.003       .  S
O245        C250   1.277       .  A
O246       Cu248   2.001       .  S
O246        C249   1.277       .  A
Cu247      Cu248   2.373       .  S
C249       C1949   1.473       .  S
C250       C1862   1.478       .  S
C251       C1838   1.477       .  S
C252       C1886   1.482       .  S
O253       Cu261   2.006       .  S
O253        C263   1.277       .  A
O254       Cu261   2.007       .  S
O254        C264   1.278       .  A
O255       Cu261   2.011       .  S
O255        C265   1.278       .  A
O256       Cu261   2.009       .  S
O256        C266   1.279       .  A
O257       Cu262   2.013       .  S
O257        C266   1.277       .  A
O258       Cu262   2.009       .  S
O258        C265   1.278       .  A
O259       Cu262   2.008       .  S
O259        C264   1.277       .  A
O260       Cu262   2.013       .  S
O260        C263   1.279       .  A
Cu261      Cu262   2.368       .  S
C263       C1757   1.487       .  S
C264       C1814   1.482       .  S
C265       C1877   1.478       .  S
C266       C1781   1.491       .  S
O267       Cu275   2.006       .  S
O267        C277   1.277       .  A
O268       Cu275   2.011       .  S
O268        C278   1.278       .  A
O269       Cu275   2.011       .  S
O269        C279   1.278       .  A
O270       Cu275   2.006       .  S
O270        C280   1.276       .  A
O271       Cu276   2.016       .  S
O271        C280   1.280       .  A
O272       Cu276   2.012       .  S
O272        C279   1.278       .  A
O273       Cu276   2.005       .  S
O273        C278   1.278       .  A
O274       Cu276   2.009       .  S
O274        C277   1.278       .  A
Cu275      Cu276   2.370       .  S
C277       C1805   1.476       .  S
C278       C1742   1.484       .  S
C279       C2693   1.476       .  S
C280       C1934   1.491       .  S
O281       Cu289   2.009       .  S
O281        C291   1.278       .  A
O282       Cu289   2.006       .  S
O282        C292   1.277       .  A
O283       Cu289   2.005       .  S
O283        C293   1.278       .  A
O284       Cu289   2.009       .  S
O284        C294   1.277       .  A
O285       Cu290   2.014       .  S
O285        C294   1.280       .  A
O286       Cu290   2.013       .  S
O286        C293   1.278       .  A
O287       Cu290   2.008       .  S
O287        C292   1.278       .  A
O288       Cu290   2.010       .  S
O288        C291   1.278       .  A
Cu289      Cu290   2.368       .  S
C291       C1829   1.486       .  S
C292       C1685   1.480       .  S
C293       C2477   1.486       .  S
C294       C1718   1.491       .  S
O295       Cu303   2.014       .  S
O295        C305   1.278       .  A
O296       Cu303   2.014       .  S
O296        C306   1.279       .  A
O297       Cu303   2.000       .  S
O297        C307   1.275       .  A
O298       Cu303   2.003       .  S
O298        C308   1.277       .  A
O299       Cu304   2.012       .  S
O299        C308   1.278       .  A
O300       Cu304   2.014       .  S
O300        C307   1.280       .  A
O301       Cu304   2.004       .  S
O301        C306   1.277       .  A
O302       Cu304   2.003       .  S
O302        C305   1.277       .  A
Cu303      Cu304   2.370       .  S
C305       C1709   1.477       .  S
C306       C2549   1.481       .  S
C307       C1670   1.492       .  S
C308       C2246   1.477       .  S
O309       Cu317   2.009       .  S
O309        C319   1.278       .  A
O310       Cu317   2.008       .  S
O310        C320   1.278       .  A
O311       Cu317   2.008       .  S
O311        C321   1.278       .  A
O312       Cu317   2.003       .  S
O312        C322   1.277       .  A
O313       Cu318   2.006       .  S
O313        C322   1.278       .  A
O314       Cu318   2.007       .  S
O314        C321   1.278       .  A
O315       Cu318   2.007       .  S
O315        C320   1.278       .  A
O316       Cu318   2.007       .  S
O316        C319   1.278       .  A
Cu317      Cu318   2.372       .  S
C319       C2006   1.485       .  S
C320       C1637   1.479       .  S
C321       C2309   1.479       .  S
C322       C1661   1.475       .  S
O323       Cu331   2.007       .  S
O323        C333   1.278       .  A
O324       Cu331   2.012       .  S
O324        C334   1.278       .  A
O325       Cu331   2.010       .  S
O325        C335   1.278       .  A
O326       Cu331   2.011       .  S
O326        C336   1.278       .  A
O327       Cu332   2.006       .  S
O327        C336   1.277       .  A
O328       Cu332   2.008       .  S
O328        C335   1.277       .  A
O329       Cu332   2.002       .  S
O329        C334   1.277       .  A
O330       Cu332   2.009       .  S
O330        C333   1.278       .  A
Cu331      Cu332   2.373       .  S
C333       C2078   1.479       .  S
C334       C1646   1.480       .  S
C335       C1790   1.478       .  S
C336       C1694   1.475       .  S
O337       Cu345   2.004       .  S
O337        C347   1.277       .  A
O338       Cu345   2.002       .  S
O338        C348   1.276       .  A
O339       Cu345   2.007       .  S
O339        C349   1.278       .  A
O340       Cu345   2.009       .  S
O340        C350   1.278       .  A
O341       Cu346   2.014       .  S
O341        C350   1.278       .  A
O342       Cu346   2.015       .  S
O342        C349   1.279       .  A
O343       Cu346   2.015       .  S
O343        C348   1.280       .  A
O344       Cu346   2.013       .  S
O344        C347   1.279       .  A
Cu345      Cu346   2.368       .  S
C347       C1589   1.480       .  S
C348       C1565   1.489       .  S
C349       C1613   1.484       .  S
C350       C2270   1.488       .  S
O351       Cu359   2.009       .  S
O351        C361   1.277       .  A
O352       Cu359   2.003       .  S
O352        C362   1.277       .  A
O353       Cu359   2.016       .  S
O353        C363   1.278       .  A
O354       Cu359   2.013       .  S
O354        C364   1.279       .  A
O355       Cu360   2.001       .  S
O355        C364   1.277       .  A
O356       Cu360   2.007       .  S
O356        C363   1.278       .  A
O357       Cu360   2.015       .  S
O357        C362   1.279       .  A
O358       Cu360   2.013       .  S
O358        C361   1.279       .  A
Cu359      Cu360   2.368       .  S
C361       C1622   1.483       .  S
C362       C2222   1.483       .  S
C363       C1517   1.495       .  S
C364       C1550   1.478       .  S
O365       Cu373   2.009       .  S
O365        C375   1.278       .  A
O366       Cu373   2.011       .  S
O366        C376   1.277       .  A
O367       Cu373   2.011       .  S
O367        C377   1.278       .  A
O368       Cu373   2.014       .  S
O368        C378   1.278       .  A
O369       Cu374   2.004       .  S
O369        C378   1.277       .  A
O370       Cu374   2.007       .  S
O370        C377   1.278       .  A
O371       Cu374   2.007       .  S
O371        C376   1.279       .  A
O372       Cu374   2.004       .  S
O372        C375   1.277       .  A
Cu373      Cu374   2.369       .  S
C375       C1493   1.478       .  S
C376       C1853   1.492       .  S
C377       C1469   1.482       .  S
C378       C1541   1.483       .  S
O379       Cu387   2.009       .  S
O379        C389   1.278       .  A
O380       Cu387   2.007       .  S
O380        C390   1.279       .  A
O381       Cu387   2.003       .  S
O381        C391   1.278       .  A
O382       Cu387   2.007       .  S
O382        C392   1.278       .  A
O383       Cu388   2.011       .  S
O383        C392   1.278       .  A
O384       Cu388   2.012       .  S
O384        C391   1.278       .  A
O385       Cu388   2.011       .  S
O385        C390   1.277       .  A
O386       Cu388   2.007       .  S
O386        C389   1.278       .  A
Cu387      Cu388   2.369       .  S
C389       C1598   1.479       .  S
C390       C1454   1.488       .  S
C391       C1910   1.486       .  S
C392       C1502   1.482       .  S
O393       Cu401   2.014       .  S
O393        C403   1.279       .  A
O394       Cu401   2.017       .  S
O394        C404   1.279       .  A
O395       Cu401   1.996       .  S
O395        C405   1.275       .  A
O396       Cu401   2.000       .  S
O396        C406   1.276       .  A
O397       Cu402   2.017       .  S
O397        C406   1.279       .  A
O398       Cu402   2.020       .  S
O398        C405   1.281       .  A
O399       Cu402   2.007       .  S
O399        C404   1.278       .  A
O400       Cu402   2.007       .  S
O400        C403   1.277       .  A
Cu401      Cu402   2.369       .  S
C403       C1373   1.480       .  S
C404       C1397   1.485       .  S
C405       C2021   1.491       .  S
C406       C1430   1.478       .  S
O407       Cu415   2.011       .  S
O407        C417   1.277       .  A
O408       Cu415   2.014       .  S
O408        C418   1.278       .  A
O409       Cu415   2.012       .  S
O409        C419   1.278       .  A
O410       Cu415   2.013       .  S
O410        C420   1.278       .  A
O411       Cu416   2.012       .  S
O411        C420   1.279       .  A
O412       Cu416   2.010       .  S
O412        C419   1.278       .  A
O413       Cu416   1.999       .  S
O413        C418   1.277       .  A
O414       Cu416   2.002       .  S
O414        C417   1.278       .  A
Cu415      Cu416   2.368       .  S
C417       C1325   1.490       .  S
C418       C1349   1.482       .  S
C419       C1421   1.481       .  S
C420       C1982   1.484       .  S
O421       Cu429   2.007       .  S
O421        C431   1.278       .  A
O422       Cu429   2.007       .  S
O422        C432   1.279       .  A
O423       Cu429   2.011       .  S
O423        C433   1.278       .  A
O424       Cu429   2.008       .  S
O424        C434   1.278       .  A
O425       Cu430   2.018       .  S
O425        C434   1.279       .  A
O426       Cu430   2.010       .  S
O426        C433   1.278       .  A
O427       Cu430   2.017       .  S
O427        C432   1.278       .  A
O428       Cu430   2.012       .  S
O428        C431   1.278       .  A
Cu429      Cu430   2.369       .  S
C431       C1406   1.478       .  S
C432       C1286   1.494       .  S
C433       C2630   1.479       .  S
C434       C1310   1.486       .  S
O435       Cu443   2.006       .  S
O435        C445   1.277       .  A
O436       Cu443   2.013       .  S
O436        C446   1.278       .  A
O437       Cu443   2.008       .  S
O437        C447   1.278       .  A
O438       Cu443   2.000       .  S
O438        C448   1.278       .  A
O439       Cu444   2.007       .  S
O439        C448   1.277       .  A
O440       Cu444   2.004       .  S
O440        C447   1.277       .  A
O441       Cu444   2.012       .  S
O441        C446   1.278       .  A
O442       Cu444   2.011       .  S
O442        C445   1.278       .  A
Cu443      Cu444   2.373       .  S
C445       C2582   1.479       .  S
C446       C1301   1.478       .  S
C447       C1358   1.473       .  S
C448       C1262   1.481       .  S
O449       Cu457   2.017       .  S
O449        C459   1.279       .  A
O450       Cu457   2.011       .  S
O450        C460   1.278       .  A
O451       Cu457   2.008       .  S
O451        C461   1.277       .  A
O452       Cu457   2.014       .  S
O452        C462   1.277       .  A
O453       Cu458   2.009       .  S
O453        C462   1.279       .  A
O454       Cu458   2.012       .  S
O454        C461   1.279       .  A
O455       Cu458   2.004       .  S
O455        C460   1.277       .  A
O456       Cu458   2.006       .  S
O456        C459   1.278       .  A
Cu457      Cu458   2.369       .  S
C459       C1181   1.486       .  S
C460       C1214   1.473       .  S
C461       C1238   1.484       .  S
C462       C1733   1.492       .  S
O463       Cu471   2.016       .  S
O463        C473   1.279       .  A
O464       Cu471   2.009       .  S
O464        C474   1.278       .  A
O465       Cu471   2.006       .  S
O465        C475   1.278       .  A
O466       Cu471   2.002       .  S
O466        C476   1.275       .  A
O467       Cu472   2.009       .  S
O467        C476   1.280       .  A
O468       Cu472   2.002       .  S
O468        C475   1.277       .  A
O469       Cu472   2.006       .  S
O469        C474   1.277       .  A
O470       Cu472   2.005       .  S
O470        C473   1.277       .  A
Cu471      Cu472   2.371       .  S
C473       C1766   1.479       .  S
C474       C1229   1.477       .  S
C475       C1166   1.475       .  S
C476       C1133   1.492       .  S
O477       Cu485   2.005       .  S
O477        C487   1.277       .  A
O478       Cu485   2.004       .  S
O478        C488   1.276       .  A
O479       Cu485   2.014       .  S
O479        C489   1.279       .  A
O480       Cu485   2.010       .  S
O480        C490   1.279       .  A
O481       Cu486   2.003       .  S
O481        C490   1.277       .  A
O482       Cu486   1.996       .  S
O482        C489   1.276       .  A
O483       Cu486   2.016       .  S
O483        C488   1.279       .  A
O484       Cu486   2.011       .  S
O484        C487   1.279       .  A
Cu485      Cu486   2.372       .  S
C487       C2333   1.483       .  S
C488       C1109   1.473       .  S
C489       C1157   1.476       .  S
C490       C1085   1.486       .  S
O491       Cu499   2.006       .  S
O491        C501   1.279       .  A
O492       Cu499   2.008       .  S
O492        C502   1.277       .  A
O493       Cu499   2.010       .  S
O493        C503   1.277       .  A
O494       Cu499   2.011       .  S
O494        C504   1.278       .  A
O495       Cu500   2.010       .  S
O495        C504   1.278       .  A
O496       Cu500   2.009       .  S
O496        C503   1.278       .  A
O497       Cu500   2.005       .  S
O497        C502   1.278       .  A
O498       Cu500   2.012       .  S
O498        C501   1.277       .  A
Cu499      Cu500   2.368       .  S
C501       C1118   1.495       .  S
C502       C2381   1.484       .  S
C503       C1070   1.476       .  S
C504       C1205   1.484       .  S
O505       Cu513   2.017       .  S
O505        C515   1.279       .  A
O506       Cu513   2.015       .  S
O506        C516   1.279       .  A
O507       Cu513   2.023       .  S
O507        C517   1.280       .  A
O508       Cu513   2.020       .  S
O508        C518   1.279       .  A
O509       Cu514   2.006       .  S
O509        C518   1.277       .  A
O510       Cu514   2.006       .  S
O510        C517   1.277       .  A
O511       Cu514   2.010       .  S
O511        C516   1.278       .  A
O512       Cu514   2.004       .  S
O512        C515   1.278       .  A
Cu513      Cu514   2.370       .  S
C515       C1013   1.482       .  S
C516        C998   1.487       .  S
C517       C2510   1.488       .  S
C518       C1046   1.481       .  S
O519       Cu527   2.011       .  S
O519        C529   1.278       .  A
O520       Cu527   2.009       .  S
O520        C530   1.278       .  A
O521       Cu527   2.009       .  S
O521        C531   1.278       .  A
O522       Cu527   2.004       .  S
O522        C532   1.277       .  A
O523       Cu528   2.009       .  S
O523        C532   1.278       .  A
O524       Cu528   2.007       .  S
O524        C531   1.278       .  A
O525       Cu528   2.011       .  S
O525        C530   1.278       .  A
O526       Cu528   2.014       .  S
O526        C529   1.278       .  A
Cu527      Cu528   2.373       .  S
C529       C2453   1.479       .  S
C530       C1037   1.481       .  S
C531        C965   1.478       .  S
C532        C941   1.475       .  S
O533       Cu541   2.007       .  S
O533        C543   1.278       .  A
O534       Cu541   2.007       .  S
O534        C544   1.277       .  A
O535       Cu541   2.007       .  S
O535        C545   1.278       .  A
O536       Cu541   2.010       .  S
O536        C546   1.278       .  A
O537       Cu542   2.010       .  S
O537        C546   1.278       .  A
O538       Cu542   2.012       .  S
O538        C545   1.278       .  A
O539       Cu542   2.011       .  S
O539        C544   1.278       .  A
O540       Cu542   2.012       .  S
O540        C543   1.278       .  A
Cu541      Cu542   2.372       .  S
C543        C893   1.486       .  S
C544        C974   1.481       .  S
C545        C917   1.476       .  S
C546       C2102   1.479       .  S
O547       Cu555   2.009       .  S
O547        C557   1.278       .  A
O548       Cu555   2.009       .  S
O548        C558   1.278       .  A
O549       Cu555   2.018       .  S
O549        C559   1.279       .  A
O550       Cu555   2.015       .  S
O550        C560   1.279       .  A
O551       Cu556   2.007       .  S
O551        C560   1.277       .  A
O552       Cu556   2.002       .  S
O552        C559   1.277       .  A
O553       Cu556   2.007       .  S
O553        C558   1.278       .  A
O554       Cu556   2.010       .  S
O554        C557   1.278       .  A
Cu555      Cu556   2.370       .  S
C557       C1022   1.479       .  S
C558        C869   1.485       .  S
C559       C2141   1.480       .  S
C560        C926   1.487       .  S
O561       Cu569   2.010       .  S
O561        C571   1.278       .  A
O562       Cu569   2.012       .  S
O562        C572   1.279       .  A
O563       Cu569   2.017       .  S
O563        C573   1.278       .  A
O564       Cu569   2.016       .  S
O564        C574   1.279       .  A
O565       Cu570   1.999       .  S
O565        C574   1.276       .  A
O566       Cu570   2.003       .  S
O566        C573   1.277       .  A
O567       Cu570   2.002       .  S
O567        C572   1.276       .  A
O568       Cu570   2.006       .  S
O568        C571   1.278       .  A
Cu569      Cu570   2.371       .  S
C571       C1574   1.477       .  S
C572        C854   1.488       .  S
C573        C830   1.476       .  S
C574       C1277   1.481       .  S
O575       Cu583   2.008       .  S
O575        C585   1.278       .  A
O576       Cu583   2.005       .  S
O576        C586   1.277       .  A
O577       Cu583   2.014       .  S
O577        C587   1.279       .  A
O578       Cu583   2.006       .  S
O578        C588   1.277       .  A
O579       Cu584   2.009       .  S
O579        C588   1.278       .  A
O580       Cu584   2.011       .  S
O580        C587   1.278       .  A
O581       Cu584   2.010       .  S
O581        C586   1.278       .  A
O582       Cu584   2.010       .  S
O582        C585   1.278       .  A
Cu583      Cu584   2.372       .  S
C585       C1445   1.482       .  S
C586        C845   1.475       .  S
C587        C989   1.482       .  S
C588        C797   1.479       .  S
O589       Cu597   2.006       .  S
O589        C599   1.277       .  A
O590       Cu597   2.010       .  S
O590        C600   1.278       .  A
O591       Cu597   2.010       .  S
O591        C601   1.279       .  A
O592       Cu597   2.011       .  S
O592        C602   1.278       .  A
O593       Cu598   2.004       .  S
O593        C602   1.277       .  A
O594       Cu598   2.003       .  S
O594        C601   1.276       .  A
O595       Cu598   2.008       .  S
O595        C600   1.278       .  A
O596       Cu598   2.012       .  S
O596        C599   1.278       .  A
Cu597      Cu598   2.371       .  S
C599       C1190   1.478       .  S
C600        C782   1.479       .  S
C601        C806   1.488       .  S
C602        C878   1.477       .  S
O603       Cu611   2.010       .  S
O603        C613   1.278       .  A
O604       Cu611   2.011       .  S
O604        C614   1.278       .  A
O605       Cu611   1.994       .  S
O605        C615   1.277       .  A
O606       Cu611   1.994       .  S
O606        C616   1.276       .  A
O607       Cu612   2.020       .  S
O607        C616   1.280       .  A
O608       Cu612   2.023       .  S
O608        C615   1.279       .  A
O609       Cu612   2.010       .  S
O609        C614   1.278       .  A
O610       Cu612   2.012       .  S
O610        C613   1.278       .  A
Cu611      Cu612   2.369       .  S
C613       C1061   1.480       .  S
C614        C773   1.481       .  S
C615       C1382   1.491       .  S
C616        C821   1.482       .  S
O617       Cu625   2.007       .  S
O617        C627   1.277       .  A
O618       Cu625   2.006       .  S
O618        C628   1.277       .  A
O619       Cu625   2.011       .  S
O619        C629   1.278       .  A
O620       Cu625   2.003       .  S
O620        C630   1.277       .  A
O621       Cu626   2.009       .  S
O621        C630   1.278       .  A
O622       Cu626   2.003       .  S
O622        C629   1.277       .  A
O623       Cu626   2.011       .  S
O623        C628   1.278       .  A
O624       Cu626   2.010       .  S
O624        C627   1.278       .  A
Cu625      Cu626   2.374       .  S
C627       C1478   1.475       .  S
C628        C734   1.476       .  S
C629        C950   1.478       .  S
C630        C749   1.479       .  S
O631       Cu639   2.009       .  S
O631        C641   1.279       .  A
O632       Cu639   2.007       .  S
O632        C642   1.278       .  A
O633       Cu639   2.008       .  S
O633        C643   1.278       .  A
O634       Cu639   2.002       .  S
O634        C644   1.277       .  A
O635       Cu640   2.014       .  S
O635        C644   1.278       .  A
O636       Cu640   2.014       .  S
O636        C643   1.278       .  A
O637       Cu640   2.005       .  S
O637        C642   1.278       .  A
O638       Cu640   2.012       .  S
O638        C641   1.277       .  A
Cu639      Cu640   2.367       .  S
C641        C902   1.494       .  S
C642        C758   1.478       .  S
C643        C701   1.485       .  S
C644       C1142   1.487       .  S
O645       Cu653   2.017       .  S
O645        C655   1.281       .  A
O646       Cu653   2.013       .  S
O646        C656   1.279       .  A
O647       Cu653   2.007       .  S
O647        C657   1.277       .  A
O648       Cu653   2.006       .  S
O648        C658   1.277       .  A
O649       Cu654   2.014       .  S
O649        C658   1.279       .  A
O650       Cu654   2.017       .  S
O650        C657   1.279       .  A
O651       Cu654   2.006       .  S
O651        C656   1.278       .  A
O652       Cu654   1.999       .  S
O652        C655   1.275       .  A
Cu653      Cu654   2.369       .  S
C655       C1334   1.493       .  S
C656        C677   1.480       .  S
C657        C710   1.479       .  S
C658       C1094   1.479       .  S
O659       Cu667   2.009       .  S
O659        C669   1.278       .  A
O660       Cu667   2.006       .  S
O660        C670   1.278       .  A
O661       Cu667   2.003       .  S
O661        C671   1.276       .  A
O662       Cu667   2.001       .  S
O662        C672   1.277       .  A
O663       Cu668   2.014       .  S
O663        C672   1.278       .  A
O664       Cu668   2.014       .  S
O664        C671   1.279       .  A
O665       Cu668   2.013       .  S
O665        C670   1.278       .  A
O666       Cu668   2.010       .  S
O666        C669   1.278       .  A
Cu667      Cu668   2.370       .  S
C669        C725   1.483       .  S
C670       C1526   1.483       .  S
C671        C686   1.485       .  S
C672       C1253   1.476       .  S
C673        C674   1.403       .  A
C673        C678   1.400       .  A
C673        H683   1.084       .  S
C674        C679   1.481       .  S
C674        C675   1.412       .  A
C675        C676   1.399       .  A
C675        S680   1.805       .  S
C676        C677   1.405       .  A
C676        H681   1.084       .  S
C677        C678   1.415       .  A
C678        S682   1.803       .  S
C679        C684   1.409       .  A
C679        C688   1.400       .  A
S680        H696   1.406       .  S
S682        H693   1.407       .  S
C684        C685   1.404       .  A
C684        S689   1.807       .  S
C685        C686   1.407       .  A
C685        H690   1.082       .  S
C686        C687   1.417       .  A
C687        C688   1.398       .  A
C687        S691   1.799       .  S
C688        H692   1.084       .  S
S689        H694   1.407       .  S
S691        H695   1.408       .  S
C697        C698   1.402       .  A
C697        C702   1.401       .  A
C697        H707   1.084       .  S
C698        C703   1.481       .  S
C698        C699   1.410       .  A
C699        C700   1.399       .  A
C699        S704   1.804       .  S
C700        C701   1.407       .  A
C700        H705   1.084       .  S
C701        C702   1.417       .  A
C702        S706   1.802       .  S
C703        C708   1.409       .  A
C703        C712   1.401       .  A
S704        H720   1.406       .  S
S706        H717   1.408       .  S
C708        C709   1.404       .  A
C708        S713   1.806       .  S
C709        C710   1.406       .  A
C709        H714   1.083       .  S
C710        C711   1.414       .  A
C711        C712   1.399       .  A
C711        S715   1.801       .  S
C712        H716   1.084       .  S
S713        H718   1.407       .  S
S715        H719   1.407       .  S
C721        C722   1.401       .  A
C721        C726   1.400       .  A
C721        H731   1.084       .  S
C722        C727   1.479       .  S
C722        C723   1.411       .  A
C723        C724   1.399       .  A
C723        S728   1.804       .  S
C724        C725   1.406       .  A
C724        H729   1.084       .  S
C725        C726   1.417       .  A
C726        S730   1.803       .  S
C727        C732   1.409       .  A
C727        C736   1.401       .  A
S728        H744   1.406       .  S
S730        H741   1.408       .  S
C732        C733   1.404       .  A
C732        S737   1.806       .  S
C733        C734   1.404       .  A
C733        H738   1.083       .  S
C734        C735   1.414       .  A
C735        C736   1.399       .  A
C735        S739   1.804       .  S
C736        H740   1.084       .  S
S737        H742   1.407       .  S
S739        H743   1.407       .  S
C745        C746   1.402       .  A
C745        C750   1.399       .  A
C745        H755   1.084       .  S
C746        C751   1.478       .  S
C746        C747   1.411       .  A
C747        C748   1.399       .  A
C747        S752   1.804       .  S
C748        C749   1.405       .  A
C748        H753   1.084       .  S
C749        C750   1.415       .  A
C750        S754   1.803       .  S
C751        C756   1.408       .  A
C751        C760   1.401       .  A
S752        H768   1.406       .  S
S754        H765   1.407       .  S
C756        C757   1.402       .  A
C756        S761   1.807       .  S
C757        C758   1.405       .  A
C757        H762   1.083       .  S
C758        C759   1.415       .  A
C759        C760   1.398       .  A
C759        S763   1.803       .  S
C760        H764   1.084       .  S
S761        H766   1.407       .  S
S763        H767   1.407       .  S
C769        C770   1.402       .  A
C769        C774   1.400       .  A
C769        H779   1.084       .  S
C770        C775   1.480       .  S
C770        C771   1.412       .  A
C771        C772   1.400       .  A
C771        S776   1.804       .  S
C772        C773   1.405       .  A
C772        H777   1.084       .  S
C773        C774   1.415       .  A
C774        S778   1.803       .  S
C775        C780   1.409       .  A
C775        C784   1.401       .  A
S776        H792   1.406       .  S
S778        H789   1.408       .  S
C780        C781   1.405       .  A
C780        S785   1.806       .  S
C781        C782   1.405       .  A
C781        H786   1.083       .  S
C782        C783   1.415       .  A
C783        C784   1.398       .  A
C783        S787   1.803       .  S
C784        H788   1.084       .  S
S785        H790   1.407       .  S
S787        H791   1.407       .  S
C793        C794   1.403       .  A
C793        C798   1.399       .  A
C793        H803   1.084       .  S
C794        C799   1.482       .  S
C794        C795   1.413       .  A
C795        C796   1.399       .  A
C795        S800   1.804       .  S
C796        C797   1.405       .  A
C796        H801   1.084       .  S
C797        C798   1.415       .  A
C798        S802   1.803       .  S
C799        C804   1.409       .  A
C799        C808   1.400       .  A
S800        H816   1.406       .  S
S802        H813   1.408       .  S
C804        C805   1.403       .  A
C804        S809   1.807       .  S
C805        C806   1.408       .  A
C805        H810   1.082       .  S
C806        C807   1.418       .  A
C807        C808   1.397       .  A
C807        S811   1.800       .  S
C808        H812   1.084       .  S
S809        H814   1.407       .  S
S811        H815   1.408       .  S
C817        C818   1.402       .  A
C817        C822   1.400       .  A
C817        H827   1.084       .  S
C818        C823   1.478       .  S
C818        C819   1.411       .  A
C819        C820   1.398       .  A
C819        S824   1.805       .  S
C820        C821   1.407       .  A
C820        H825   1.084       .  S
C821        C822   1.415       .  A
C822        S826   1.802       .  S
C823        C828   1.410       .  A
C823        C832   1.399       .  A
S824        H840   1.405       .  S
S826        H837   1.408       .  S
C828        C829   1.406       .  A
C828        S833   1.806       .  S
C829        C830   1.405       .  A
C829        H834   1.083       .  S
C830        C831   1.414       .  A
C831        C832   1.396       .  A
C831        S835   1.802       .  S
C832        H836   1.084       .  S
S833        H838   1.407       .  S
S835        H839   1.407       .  S
C841        C842   1.401       .  A
C841        C846   1.399       .  A
C841        H851   1.084       .  S
C842        C847   1.479       .  S
C842        C843   1.412       .  A
C843        C844   1.399       .  A
C843        S848   1.804       .  S
C844        C845   1.403       .  A
C844        H849   1.084       .  S
C845        C846   1.415       .  A
C846        S850   1.804       .  S
C847        C852   1.407       .  A
C847        C856   1.399       .  A
S848        H864   1.406       .  S
S850        H861   1.407       .  S
C852        C853   1.403       .  A
C852        S857   1.807       .  S
C853        C854   1.409       .  A
C853        H858   1.082       .  S
C854        C855   1.419       .  A
C855        C856   1.398       .  A
C855        S859   1.799       .  S
C856        H860   1.084       .  S
S857        H862   1.407       .  S
S859        H863   1.408       .  S
C865        C866   1.400       .  A
C865        C870   1.399       .  A
C865        H875   1.084       .  S
C866        C871   1.478       .  S
C866        C867   1.411       .  A
C867        C868   1.399       .  A
C867        S872   1.805       .  S
C868        C869   1.407       .  A
C868        H873   1.084       .  S
C869        C870   1.418       .  A
C870        S874   1.802       .  S
C871        C876   1.409       .  A
C871        C880   1.401       .  A
S872        H888   1.405       .  S
S874        H885   1.408       .  S
C876        C877   1.402       .  A
C876        S881   1.807       .  S
C877        C878   1.405       .  A
C877        H882   1.083       .  S
C878        C879   1.415       .  A
C879        C880   1.399       .  A
C879        S883   1.803       .  S
C880        H884   1.084       .  S
S881        H886   1.407       .  S
S883        H887   1.407       .  S
C889        C890   1.401       .  A
C889        C894   1.400       .  A
C889        H899   1.084       .  S
C890        C895   1.479       .  S
C890        C891   1.410       .  A
C891        C892   1.400       .  A
C891        S896   1.804       .  S
C892        C893   1.407       .  A
C892        H897   1.084       .  S
C893        C894   1.418       .  A
C894        S898   1.802       .  S
C895        C900   1.406       .  A
C895        C904   1.399       .  A
S896        H912   1.406       .  S
S898        H909   1.408       .  S
C900        C901   1.403       .  A
C900        S905   1.807       .  S
C901        C902   1.410       .  A
C901        H906   1.082       .  S
C902        C903   1.422       .  A
C903        C904   1.400       .  A
C903        S907   1.800       .  S
C904        H908   1.084       .  S
S905        H910   1.407       .  S
S907        H911   1.403       .  S
C913        C914   1.402       .  A
C913        C918   1.400       .  A
C913        H923   1.084       .  S
C914        C919   1.481   1_556  S
C914        C915   1.413       .  A
C915        C916   1.400       .  A
C915        S920   1.804       .  S
C916        C917   1.404       .  A
C916        H921   1.084       .  S
C917        C918   1.414       .  A
C918        S922   1.803       .  S
C919        C924   1.409       .  A
C919        C928   1.400       .  A
S920        H936   1.406   1_556  S
S922        H933   1.407       .  S
C924        C925   1.404       .  A
C924        S929   1.807       .  S
C925        C926   1.407       .  A
C925        H930   1.082       .  S
C926        C927   1.419       .  A
C927        C928   1.400       .  A
C927        S931   1.802       .  S
C928        H932   1.084       .  S
S929        H934   1.407       .  S
S931        H935   1.408       .  S
C937        C938   1.400       .  A
C937        C942   1.397       .  A
C937        H947   1.084       .  S
C938        C943   1.475       .  S
C938        C939   1.412       .  A
C939        C940   1.400       .  A
C939        S944   1.806       .  S
C940        C941   1.404       .  A
C940        H945   1.084       .  S
C941        C942   1.415       .  A
C942        S946   1.804       .  S
C943        C948   1.407       .  A
C943        C952   1.400       .  A
S944        H960   1.403       .  S
S946        H957   1.405       .  S
C948        C949   1.402       .  A
C948        S953   1.806       .  S
C949        C950   1.406       .  A
C949        H954   1.082       .  S
C950        C951   1.415       .  A
C951        C952   1.399       .  A
C951        S955   1.803       .  S
C952        H956   1.084       .  S
S953        H958   1.407       .  S
S955        H959   1.408       .  S
C961        C962   1.402       .  A
C961        C966   1.400       .  A
C961        H971   1.084       .  S
C962        C967   1.478   1_455  S
C962        C963   1.411       .  A
C963        C964   1.398       .  A
C963        S968   1.805       .  S
C964        C965   1.404       .  A
C964        H969   1.084       .  S
C965        C966   1.414       .  A
C966        S970   1.803       .  S
C967        C972   1.408       .  A
C967        C976   1.400       .  A
S968        H984   1.405   1_455  S
S970        H981   1.407       .  S
C972        C973   1.403       .  A
C972        S977   1.807       .  S
C973        C974   1.406       .  A
C973        H978   1.083       .  S
C974        C975   1.417       .  A
C975        C976   1.399       .  A
C975        S979   1.803       .  S
C976        H980   1.084       .  S
S977        H982   1.407       .  S
S979        H983   1.408       .  S
C985        C986   1.402       .  A
C985        C990   1.401       .  A
C985        H995   1.084       .  S
C986        C991   1.481       .  S
C986        C987   1.412       .  A
C987        C988   1.401       .  A
C987        S992   1.805       .  S
C988        C989   1.405       .  A
C988        H993   1.084       .  S
C989        C990   1.416       .  A
C990        S994   1.803       .  S
C991        C996   1.408       .  A
C991       C1000   1.401       .  A
S992       H1008   1.404       .  S
S994       H1005   1.407       .  S
C996        C997   1.404       .  A
C996       S1001   1.806       .  S
C997        C998   1.407       .  A
C997       H1002   1.082       .  S
C998        C999   1.418       .  A
C999       C1000   1.401       .  A
C999       S1003   1.802       .  S
C1000      H1004   1.084       .  S
S1001      H1006   1.407       .  S
S1003      H1007   1.408       .  S
C1009      C1010   1.403       .  A
C1009      C1014   1.402       .  A
C1009      H1019   1.084       .  S
C1010      C1015   1.481   1_455  S
C1010      C1011   1.411       .  A
C1011      C1012   1.398       .  A
C1011      S1016   1.804       .  S
C1012      C1013   1.405       .  A
C1012      H1017   1.084       .  S
C1013      C1014   1.416       .  A
C1014      S1018   1.803       .  S
C1015      C1020   1.410       .  A
C1015      C1024   1.401       .  A
S1016      H1032   1.405   1_455  S
S1018      H1029   1.407       .  S
C1020      C1021   1.403       .  A
C1020      S1025   1.807       .  S
C1021      C1022   1.405       .  A
C1021      H1026   1.083       .  S
C1022      C1023   1.415       .  A
C1023      C1024   1.400       .  A
C1023      S1027   1.803       .  S
C1024      H1028   1.084       .  S
S1025      H1030   1.407       .  S
S1027      H1031   1.408       .  S
C1033      C1034   1.402       .  A
C1033      C1038   1.400       .  A
C1033      H1043   1.084       .  S
C1034      C1039   1.480   1_556  S
C1034      C1035   1.412       .  A
C1035      C1036   1.400       .  A
C1035      S1040   1.804       .  S
C1036      C1037   1.405       .  A
C1036      H1041   1.084       .  S
C1037      C1038   1.416       .  A
C1038      S1042   1.804       .  S
C1039      C1044   1.409       .  A
C1039      C1048   1.400       .  A
S1040      H1056   1.405       .  S
S1042      H1053   1.406       .  S
C1044      C1045   1.405       .  A
C1044      S1049   1.806       .  S
C1045      C1046   1.406       .  A
C1045      H1050   1.083       .  S
C1046      C1047   1.415       .  A
C1047      C1048   1.399       .  A
C1047      S1051   1.803       .  S
C1048      H1052   1.084       .  S
S1049      H1054   1.407       .  S
S1051      H1055   1.407       .  S
C1057      C1058   1.401       .  A
C1057      C1062   1.399       .  A
C1057      H1067   1.084       .  S
C1058      C1063   1.479       .  S
C1058      C1059   1.412       .  A
C1059      C1060   1.401       .  A
C1059      S1064   1.805       .  S
C1060      C1061   1.405       .  A
C1060      H1065   1.084       .  S
C1061      C1062   1.414       .  A
C1062      S1066   1.803       .  S
C1063      C1068   1.409       .  A
C1063      C1072   1.401       .  A
S1064      H1080   1.404       .  S
S1066      H1077   1.407       .  S
C1068      C1069   1.404       .  A
C1068      S1073   1.806       .  S
C1069      C1070   1.404       .  A
C1069      H1074   1.083       .  S
C1070      C1071   1.414       .  A
C1071      C1072   1.400       .  A
C1071      S1075   1.803       .  S
C1072      H1076   1.084       .  S
S1073      H1078   1.407       .  S
S1075      H1079   1.407       .  S
C1081      C1082   1.400       .  A
C1081      C1086   1.399       .  A
C1081      H1091   1.084       .  S
C1082      C1087   1.478       .  S
C1082      C1083   1.410       .  A
C1083      C1084   1.400       .  A
C1083      S1088   1.804       .  S
C1084      C1085   1.407       .  A
C1084      H1089   1.084       .  S
C1085      C1086   1.418       .  A
C1086      S1090   1.802       .  S
C1087      C1092   1.408       .  A
C1087      C1096   1.401       .  A
S1088      H1104   1.405       .  S
S1090      H1101   1.408       .  S
C1092      C1093   1.403       .  A
C1092      S1097   1.806       .  S
C1093      C1094   1.406       .  A
C1093      H1098   1.083       .  S
C1094      C1095   1.415       .  A
C1095      C1096   1.399       .  A
C1095      S1099   1.803       .  S
C1096      H1100   1.084       .  S
S1097      H1102   1.407       .  S
S1099      H1103   1.407       .  S
C1105      C1106   1.404       .  A
C1105      C1110   1.399       .  A
C1105      H1115   1.084       .  S
C1106      C1111   1.484   1_556  S
C1106      C1107   1.414       .  A
C1107      C1108   1.400       .  A
C1107      S1112   1.804       .  S
C1108      C1109   1.403       .  A
C1108      H1113   1.084       .  S
C1109      C1110   1.412       .  A
C1110      S1114   1.804       .  S
C1111      C1116   1.408       .  A
C1111      C1120   1.401       .  A
S1112      H1128   1.406   1_556  S
S1114      H1125   1.407       .  S
C1116      C1117   1.402       .  A
C1116      S1121   1.808       .  S
C1117      C1118   1.410       .  A
C1117      H1122   1.082       .  S
C1118      C1119   1.421       .  A
C1119      C1120   1.401       .  A
C1119      S1123   1.800       .  S
C1120      H1124   1.084       .  S
S1121      H1126   1.407       .  S
S1123      H1127   1.408       .  S
C1129      C1130   1.399       .  A
C1129      C1134   1.399       .  A
C1129      H1139   1.084       .  S
C1130      C1135   1.477       .  S
C1130      C1131   1.408       .  A
C1131      C1132   1.397       .  A
C1131      S1136   1.805       .  S
C1132      C1133   1.409       .  A
C1132      H1137   1.083       .  S
C1133      C1134   1.423       .  A
C1134      S1138   1.801       .  S
C1135      C1140   1.407       .  A
C1135      C1144   1.399       .  A
S1136      H1152   1.406       .  S
S1138      H1149   1.406       .  S
C1140      C1141   1.403       .  A
C1140      S1145   1.806       .  S
C1141      C1142   1.409       .  A
C1141      H1146   1.082       .  S
C1142      C1143   1.418       .  A
C1143      C1144   1.397       .  A
C1143      S1147   1.799       .  S
C1144      H1148   1.084       .  S
S1145      H1150   1.407       .  S
S1147      H1151   1.404       .  S
C1153      C1154   1.400       .  A
C1153      C1158   1.397       .  A
C1153      H1163   1.084       .  S
C1154      C1159   1.475   1_545  S
C1154      C1155   1.411       .  A
C1155      C1156   1.399       .  A
C1155      S1160   1.804       .  S
C1156      C1157   1.404       .  A
C1156      H1161   1.084       .  S
C1157      C1158   1.416       .  A
C1158      S1162   1.804       .  S
C1159      C1164   1.408       .  A
C1159      C1168   1.400       .  A
S1160      H1176   1.405   1_545  S
S1162      H1173   1.408       .  S
C1164      C1165   1.402       .  A
C1164      S1169   1.806       .  S
C1165      C1166   1.405       .  A
C1165      H1170   1.083       .  S
C1166      C1167   1.414       .  A
C1167      C1168   1.398       .  A
C1167      S1171   1.803       .  S
C1168      H1172   1.084       .  S
S1169      H1174   1.407       .  S
S1171      H1175   1.407       .  S
C1177      C1178   1.400       .  A
C1177      C1182   1.399       .  A
C1177      H1187   1.084       .  S
C1178      C1183   1.477       .  S
C1178      C1179   1.411       .  A
C1179      C1180   1.400       .  A
C1179      S1184   1.805       .  S
C1180      C1181   1.407       .  A
C1180      H1185   1.084       .  S
C1181      C1182   1.417       .  A
C1182      S1186   1.798       .  S
C1183      C1188   1.409       .  A
C1183      C1192   1.400       .  A
S1184      H1200   1.405       .  S
S1186      H1197   1.404       .  S
C1188      C1189   1.404       .  A
C1188      S1193   1.806       .  S
C1189      C1190   1.405       .  A
C1189      H1194   1.083       .  S
C1190      C1191   1.415       .  A
C1191      C1192   1.398       .  A
C1191      S1195   1.803       .  S
C1192      H1196   1.084       .  S
S1193      H1198   1.407       .  S
S1195      H1199   1.407       .  S
C1201      C1202   1.401       .  A
C1201      C1206   1.400       .  A
C1201      H1211   1.084       .  S
C1202      C1207   1.478   1_545  S
C1202      C1203   1.411       .  A
C1203      C1204   1.399       .  A
C1203      S1208   1.805       .  S
C1204      C1205   1.406       .  A
C1204      H1209   1.084       .  S
C1205      C1206   1.417       .  A
C1206      S1210   1.803       .  S
C1207      C1212   1.409       .  A
C1207      C1216   1.402       .  A
S1208      H1224   1.405   1_545  S
S1210      H1221   1.408       .  S
C1212      C1213   1.403       .  A
C1212      S1217   1.806       .  S
C1213      C1214   1.403       .  A
C1213      H1218   1.082       .  S
C1214      C1215   1.413       .  A
C1215      C1216   1.399       .  A
C1215      S1219   1.804       .  S
C1216      H1220   1.084       .  S
S1217      H1222   1.407       .  S
S1219      H1223   1.407       .  S
C1225      C1226   1.403       .  A
C1225      C1230   1.400       .  A
C1225      H1235   1.084       .  S
C1226      C1231   1.480   1_556  S
C1226      C1227   1.411       .  A
C1227      C1228   1.399       .  A
C1227      S1232   1.804       .  S
C1228      C1229   1.404       .  A
C1228      H1233   1.084       .  S
C1229      C1230   1.415       .  A
C1230      S1234   1.804       .  S
C1231      C1236   1.408       .  A
C1231      C1240   1.400       .  A
S1232      H1248   1.406   1_556  S
S1234      H1245   1.407       .  S
C1236      C1237   1.403       .  A
C1236      S1241   1.807       .  S
C1237      C1238   1.406       .  A
C1237      H1242   1.083       .  S
C1238      C1239   1.418       .  A
C1239      C1240   1.399       .  A
C1239      S1243   1.802       .  S
C1240      H1244   1.084       .  S
S1241      H1246   1.407       .  S
S1243      H1247   1.406       .  S
C1249      C1250   1.401       .  A
C1249      C1254   1.396       .  A
C1249      H1259   1.084       .  S
C1250      C1255   1.478       .  S
C1250      C1251   1.412       .  A
C1251      C1252   1.401       .  A
C1251      S1256   1.804       .  S
C1252      C1253   1.405       .  A
C1252      H1257   1.084       .  S
C1253      C1254   1.414       .  A
C1254      S1258   1.803       .  S
C1255      C1260   1.408       .  A
C1255      C1264   1.401       .  A
S1256      H1272   1.406       .  S
S1258      H1269   1.407       .  S
C1260      C1261   1.400       .  A
C1260      S1265   1.807       .  S
C1261      C1262   1.406       .  A
C1261      H1266   1.082       .  S
C1262      C1263   1.417       .  A
C1263      C1264   1.399       .  A
C1263      S1267   1.802       .  S
C1264      H1268   1.084       .  S
S1265      H1270   1.407       .  S
S1267      H1271   1.408       .  S
C1273      C1274   1.400       .  A
C1273      C1278   1.399       .  A
C1273      H1283   1.084       .  S
C1274      C1279   1.480       .  S
C1274      C1275   1.413       .  A
C1275      C1276   1.400       .  A
C1275      S1280   1.805       .  S
C1276      C1277   1.405       .  A
C1276      H1281   1.084       .  S
C1277      C1278   1.417       .  A
C1278      S1282   1.803       .  S
C1279      C1284   1.406       .  A
C1279      C1288   1.400       .  A
S1280      H1296   1.405       .  S
S1282      H1293   1.408       .  S
C1284      C1285   1.402       .  A
C1284      S1289   1.807       .  S
C1285      C1286   1.411       .  A
C1285      H1290   1.082       .  S
C1286      C1287   1.422       .  A
C1287      C1288   1.401       .  A
C1287      S1291   1.801       .  S
C1288      H1292   1.084       .  S
S1289      H1294   1.406       .  S
S1291      H1295   1.402       .  S
C1297      C1298   1.402       .  A
C1297      C1302   1.400       .  A
C1297      H1307   1.084       .  S
C1298      C1303   1.481   1_556  S
C1298      C1299   1.412       .  A
C1299      C1300   1.401       .  A
C1299      S1304   1.804       .  S
C1300      C1301   1.404       .  A
C1300      H1305   1.084       .  S
C1301      C1302   1.414       .  A
C1302      S1306   1.803       .  S
C1303      C1308   1.408       .  A
C1303      C1312   1.400       .  A
S1304      H1320   1.405   1_556  S
S1306      H1317   1.407       .  S
C1308      C1309   1.404       .  A
C1308      S1313   1.806       .  S
C1309      C1310   1.407       .  A
C1309      H1314   1.082       .  S
C1310      C1311   1.416       .  A
C1311      C1312   1.400       .  A
C1311      S1315   1.799       .  S
C1312      H1316   1.084       .  S
S1313      H1318   1.407       .  S
S1315      H1319   1.406       .  S
C1321      C1322   1.401       .  A
C1321      C1326   1.400       .  A
C1321      H1331   1.084       .  S
C1322      C1327   1.479       .  S
C1322      C1323   1.409       .  A
C1323      C1324   1.398       .  A
C1323      S1328   1.805       .  S
C1324      C1325   1.409       .  A
C1324      H1329   1.083       .  S
C1325      C1326   1.419       .  A
C1326      S1330   1.800       .  S
C1327      C1332   1.407       .  A
C1327      C1336   1.398       .  A
S1328      H1344   1.406       .  S
S1330      H1341   1.408       .  S
C1332      C1333   1.403       .  A
C1332      S1337   1.807       .  S
C1333      C1334   1.410       .  A
C1333      H1338   1.082       .  S
C1334      C1335   1.423       .  A
C1335      C1336   1.399       .  A
C1335      S1339   1.801       .  S
C1336      H1340   1.084       .  S
S1337      H1342   1.406       .  S
S1339      H1343   1.405       .  S
C1345      C1346   1.401       .  A
C1345      C1350   1.399       .  A
C1345      H1355   1.084       .  S
C1346      C1351   1.476   1_655  S
C1346      C1347   1.410       .  A
C1347      C1348   1.398       .  A
C1347      S1352   1.805       .  S
C1348      C1349   1.407       .  A
C1348      H1353   1.084       .  S
C1349      C1350   1.416       .  A
C1350      S1354   1.802       .  S
C1351      C1356   1.409       .  A
C1351      C1360   1.401       .  A
S1352      H1368   1.405   1_655  S
S1354      H1365   1.408       .  S
C1356      C1357   1.402       .  A
C1356      S1361   1.807       .  S
C1357      C1358   1.403       .  A
C1357      H1362   1.083       .  S
C1358      C1359   1.413       .  A
C1359      C1360   1.398       .  A
C1359      S1363   1.804       .  S
C1360      H1364   1.084       .  S
S1361      H1366   1.407       .  S
S1363      H1367   1.407       .  S
C1369      C1370   1.401       .  A
C1369      C1374   1.399       .  A
C1369      H1379   1.084       .  S
C1370      C1375   1.481       .  S
C1370      C1371   1.413       .  A
C1371      C1372   1.401       .  A
C1371      S1376   1.805       .  S
C1372      C1373   1.405       .  A
C1372      H1377   1.084       .  S
C1373      C1374   1.415       .  A
C1374      S1378   1.803       .  S
C1375      C1380   1.406       .  A
C1375      C1384   1.402       .  A
S1376      H1392   1.405       .  S
S1378      H1389   1.407       .  S
C1380      C1381   1.401       .  A
C1380      S1385   1.808       .  S
C1381      C1382   1.410       .  A
C1381      H1386   1.082       .  S
C1382      C1383   1.419       .  A
C1383      C1384   1.402       .  A
C1383      S1387   1.799       .  S
C1384      H1388   1.084       .  S
S1385      H1390   1.407       .  S
S1387      H1391   1.408       .  S
C1393      C1394   1.401       .  A
C1393      C1398   1.400       .  A
C1393      H1403   1.084       .  S
C1394      C1399   1.480   1_655  S
C1394      C1395   1.411       .  A
C1395      C1396   1.399       .  A
C1395      S1400   1.805       .  S
C1396      C1397   1.406       .  A
C1396      H1401   1.084       .  S
C1397      C1398   1.416       .  A
C1398      S1402   1.799       .  S
C1399      C1404   1.410       .  A
C1399      C1408   1.401       .  A
S1400      H1416   1.405   1_655  S
S1402      H1413   1.405       .  S
C1404      C1405   1.403       .  A
C1404      S1409   1.807       .  S
C1405      C1406   1.404       .  A
C1405      H1410   1.082       .  S
C1406      C1407   1.415       .  A
C1407      C1408   1.400       .  A
C1407      S1411   1.803       .  S
C1408      H1412   1.084       .  S
S1409      H1414   1.407       .  S
S1411      H1415   1.407       .  S
C1417      C1418   1.401       .  A
C1417      C1422   1.400       .  A
C1417      H1427   1.084       .  S
C1418      C1423   1.479   1_556  S
C1418      C1419   1.412       .  A
C1419      C1420   1.400       .  A
C1419      S1424   1.805       .  S
C1420      C1421   1.405       .  A
C1420      H1425   1.084       .  S
C1421      C1422   1.416       .  A
C1422      S1426   1.803       .  S
C1423      C1428   1.409       .  A
C1423      C1432   1.400       .  A
S1424      H1440   1.405   1_556  S
S1426      H1437   1.408       .  S
C1428      C1429   1.404       .  A
C1428      S1433   1.806       .  S
C1429      C1430   1.404       .  A
C1429      H1434   1.083       .  S
C1430      C1431   1.416       .  A
C1431      C1432   1.399       .  A
C1431      S1435   1.804       .  S
C1432      H1436   1.084       .  S
S1433      H1438   1.407       .  S
S1435      H1439   1.407       .  S
C1441      C1442   1.401       .  A
C1441      C1446   1.400       .  A
C1441      H1451   1.084       .  S
C1442      C1447   1.478       .  S
C1442      C1443   1.412       .  A
C1443      C1444   1.400       .  A
C1443      S1448   1.805       .  S
C1444      C1445   1.406       .  A
C1444      H1449   1.084       .  S
C1445      C1446   1.417       .  A
C1446      S1450   1.802       .  S
C1447      C1452   1.406       .  A
C1447      C1456   1.400       .  A
S1448      H1464   1.404       .  S
S1450      H1461   1.408       .  S
C1452      C1453   1.401       .  A
C1452      S1457   1.807       .  S
C1453      C1454   1.408       .  A
C1453      H1458   1.082       .  S
C1454      C1455   1.419       .  A
C1455      C1456   1.401       .  A
C1455      S1459   1.799       .  S
C1456      H1460   1.084       .  S
S1457      H1462   1.407       .  S
S1459      H1463   1.407       .  S
C1465      C1466   1.401       .  A
C1465      C1470   1.399       .  A
C1465      H1475   1.084       .  S
C1466      C1471   1.478       .  S
C1466      C1467   1.411       .  A
C1467      C1468   1.400       .  A
C1467      S1472   1.805       .  S
C1468      C1469   1.406       .  A
C1468      H1473   1.084       .  S
C1469      C1470   1.416       .  A
C1470      S1474   1.803       .  S
C1471      C1476   1.409       .  A
C1471      C1480   1.401       .  A
S1472      H1488   1.405       .  S
S1474      H1485   1.408       .  S
C1476      C1477   1.403       .  A
C1476      S1481   1.806       .  S
C1477      C1478   1.404       .  A
C1477      H1482   1.082       .  S
C1478      C1479   1.413       .  A
C1479      C1480   1.399       .  A
C1479      S1483   1.803       .  S
C1480      H1484   1.084       .  S
S1481      H1486   1.407       .  S
S1483      H1487   1.406       .  S
C1489      C1490   1.403       .  A
C1489      C1494   1.399       .  A
C1489      H1499   1.084       .  S
C1490      C1495   1.481   1_556  S
C1490      C1491   1.411       .  A
C1491      C1492   1.399       .  A
C1491      S1496   1.804       .  S
C1492      C1493   1.405       .  A
C1492      H1497   1.084       .  S
C1493      C1494   1.414       .  A
C1494      S1498   1.803       .  S
C1495      C1500   1.409       .  A
C1495      C1504   1.401       .  A
S1496      H1512   1.406   1_556  S
S1498      H1509   1.408       .  S
C1500      C1501   1.403       .  A
C1500      S1505   1.807       .  S
C1501      C1502   1.407       .  A
C1501      H1506   1.083       .  S
C1502      C1503   1.416       .  A
C1503      C1504   1.399       .  A
C1503      S1507   1.802       .  S
C1504      H1508   1.084       .  S
S1505      H1510   1.407       .  S
S1507      H1511   1.407       .  S
C1513      C1514   1.401       .  A
C1513      C1518   1.400       .  A
C1513      H1523   1.084       .  S
C1514      C1519   1.484       .  S
C1514      C1515   1.410       .  A
C1515      C1516   1.400       .  A
C1515      S1520   1.805       .  S
C1516      C1517   1.411       .  A
C1516      H1521   1.083       .  S
C1517      C1518   1.421       .  A
C1518      S1522   1.801       .  S
C1519      C1524   1.411       .  A
C1519      C1528   1.402       .  A
S1520      H1536   1.406       .  S
S1522      H1533   1.406       .  S
C1524      C1525   1.403       .  A
C1524      S1529   1.807       .  S
C1525      C1526   1.406       .  A
C1525      H1530   1.083       .  S
C1526      C1527   1.416       .  A
C1527      C1528   1.400       .  A
C1527      S1531   1.802       .  S
C1528      H1532   1.084       .  S
S1529      H1534   1.407       .  S
S1531      H1535   1.408       .  S
C1537      C1538   1.401       .  A
C1537      C1542   1.398       .  A
C1537      H1547   1.084       .  S
C1538      C1543   1.479   1_565  S
C1538      C1539   1.412       .  A
C1539      C1540   1.399       .  A
C1539      S1544   1.805       .  S
C1540      C1541   1.406       .  A
C1540      H1545   1.084       .  S
C1541      C1542   1.415       .  A
C1542      S1546   1.799       .  S
C1543      C1548   1.410       .  A
C1543      C1552   1.401       .  A
S1544      H1560   1.405   1_565  S
S1546      H1557   1.405       .  S
C1548      C1549   1.403       .  A
C1548      S1553   1.807       .  S
C1549      C1550   1.405       .  A
C1549      H1554   1.083       .  S
C1550      C1551   1.415       .  A
C1551      C1552   1.398       .  A
C1551      S1555   1.803       .  S
C1552      H1556   1.084       .  S
S1553      H1558   1.407       .  S
S1555      H1559   1.407       .  S
C1561      C1562   1.399       .  A
C1561      C1566   1.399       .  A
C1561      H1571   1.084       .  S
C1562      C1567   1.479       .  S
C1562      C1563   1.410       .  A
C1563      C1564   1.400       .  A
C1563      S1568   1.804       .  S
C1564      C1565   1.408       .  A
C1564      H1569   1.084       .  S
C1565      C1566   1.421       .  A
C1566      S1570   1.800       .  S
C1567      C1572   1.409       .  A
C1567      C1576   1.401       .  A
S1568      H1584   1.405       .  S
S1570      H1581   1.408       .  S
C1572      C1573   1.404       .  A
C1572      S1577   1.806       .  S
C1573      C1574   1.405       .  A
C1573      H1578   1.083       .  S
C1574      C1575   1.414       .  A
C1575      C1576   1.398       .  A
C1575      S1579   1.804       .  S
C1576      H1580   1.084       .  S
S1577      H1582   1.407       .  S
S1579      H1583   1.407       .  S
C1585      C1586   1.401       .  A
C1585      C1590   1.398       .  A
C1585      H1595   1.084       .  S
C1586      C1591   1.478   1_545  S
C1586      C1587   1.411       .  A
C1587      C1588   1.400       .  A
C1587      S1592   1.804       .  S
C1588      C1589   1.405       .  A
C1588      H1593   1.084       .  S
C1589      C1590   1.416       .  A
C1590      S1594   1.803       .  S
C1591      C1596   1.408       .  A
C1591      C1600   1.400       .  A
S1592      H1608   1.405   1_545  S
S1594      H1605   1.408       .  S
C1596      C1597   1.404       .  A
C1596      S1601   1.806       .  S
C1597      C1598   1.406       .  A
C1597      H1602   1.083       .  S
C1598      C1599   1.415       .  A
C1599      C1600   1.398       .  A
C1599      S1603   1.803       .  S
C1600      H1604   1.084       .  S
S1601      H1606   1.407       .  S
S1603      H1607   1.408       .  S
C1609      C1610   1.401       .  A
C1609      C1614   1.397       .  A
C1609      H1619   1.084       .  S
C1610      C1615   1.482   1_554  S
C1610      C1611   1.412       .  A
C1611      C1612   1.402       .  A
C1611      S1616   1.804       .  S
C1612      C1613   1.406       .  A
C1612      H1617   1.084       .  S
C1613      C1614   1.416       .  A
C1614      S1618   1.801       .  S
C1615      C1620   1.409       .  A
C1615      C1624   1.402       .  A
S1616      H1632   1.406   1_554  S
S1618      H1629   1.407       .  S
C1620      C1621   1.403       .  A
C1620      S1625   1.807       .  S
C1621      C1622   1.406       .  A
C1621      H1626   1.082       .  S
C1622      C1623   1.416       .  A
C1623      C1624   1.400       .  A
C1623      S1627   1.802       .  S
C1624      H1628   1.084       .  S
S1625      H1630   1.407       .  S
S1627      H1631   1.407       .  S
C1633      C1634   1.402       .  A
C1633      C1638   1.399       .  A
C1633      H1643   1.084       .  S
C1634      C1639   1.479   1_545  S
C1634      C1635   1.411       .  A
C1635      C1636   1.399       .  A
C1635      S1640   1.804       .  S
C1636      C1637   1.405       .  A
C1636      H1641   1.084       .  S
C1637      C1638   1.415       .  A
C1638      S1642   1.803       .  S
C1639      C1644   1.408       .  A
C1639      C1648   1.402       .  A
S1640      H1656   1.406   1_545  S
S1642      H1653   1.408       .  S
C1644      C1645   1.401       .  A
C1644      S1649   1.807       .  S
C1645      C1646   1.406       .  A
C1645      H1650   1.083       .  S
C1646      C1647   1.416       .  A
C1647      C1648   1.400       .  A
C1647      S1651   1.803       .  S
C1648      H1652   1.084       .  S
S1649      H1654   1.407       .  S
S1651      H1655   1.406       .  S
C1657      C1658   1.404       .  A
C1657      C1662   1.399       .  A
C1657      H1667   1.084       .  S
C1658      C1663   1.483   1_655  S
C1658      C1659   1.414       .  A
C1659      C1660   1.398       .  A
C1659      S1664   1.804       .  S
C1660      C1661   1.403       .  A
C1660      H1665   1.084       .  S
C1661      C1662   1.414       .  A
C1662      S1666   1.803       .  S
C1663      C1668   1.409       .  A
C1663      C1672   1.401       .  A
S1664      H1680   1.406   1_655  S
S1666      H1677   1.407       .  S
C1668      C1669   1.402       .  A
C1668      S1673   1.808       .  S
C1669      C1670   1.409       .  A
C1669      H1674   1.082       .  S
C1670      C1671   1.421       .  A
C1671      C1672   1.398       .  A
C1671      S1675   1.801       .  S
C1672      H1676   1.084       .  S
S1673      H1678   1.406       .  S
S1675      H1679   1.408       .  S
C1681      C1682   1.401       .  A
C1681      C1686   1.399       .  A
C1681      H1691   1.084       .  S
C1682      C1687   1.477   1_455  S
C1682      C1683   1.411       .  A
C1683      C1684   1.399       .  A
C1683      S1688   1.804       .  S
C1684      C1685   1.405       .  A
C1684      H1689   1.084       .  S
C1685      C1686   1.416       .  A
C1686      S1690   1.803       .  S
C1687      C1692   1.409       .  A
C1687      C1696   1.400       .  A
S1688      H1704   1.405   1_455  S
S1690      H1701   1.408       .  S
C1692      C1693   1.404       .  A
C1692      S1697   1.806       .  S
C1693      C1694   1.404       .  A
C1693      H1698   1.083       .  S
C1694      C1695   1.414       .  A
C1695      C1696   1.397       .  A
C1695      S1699   1.804       .  S
C1696      H1700   1.084       .  S
S1697      H1702   1.407       .  S
S1699      H1703   1.405       .  S
C1705      C1706   1.402       .  A
C1705      C1710   1.397       .  A
C1705      H1715   1.084       .  S
C1706      C1711   1.482   1_545  S
C1706      C1707   1.413       .  A
C1707      C1708   1.401       .  A
C1707      S1712   1.804       .  S
C1708      C1709   1.405       .  A
C1708      H1713   1.084       .  S
C1709      C1710   1.414       .  A
C1710      S1714   1.804       .  S
C1711      C1716   1.409       .  A
C1711      C1720   1.400       .  A
S1712      H1728   1.406   1_545  S
S1714      H1725   1.407       .  S
C1716      C1717   1.402       .  A
C1716      S1721   1.807       .  S
C1717      C1718   1.408       .  A
C1717      H1722   1.082       .  S
C1718      C1719   1.420       .  A
C1719      C1720   1.399       .  A
C1719      S1723   1.799       .  S
C1720      H1724   1.084       .  S
S1721      H1726   1.407       .  S
S1723      H1727   1.400       .  S
C1729      C1730   1.400       .  A
C1729      C1734   1.400       .  A
C1729      H1739   1.084       .  S
C1730      C1735   1.479       .  S
C1730      C1731   1.409       .  A
C1731      C1732   1.399       .  A
C1731      S1736   1.804       .  S
C1732      C1733   1.410       .  A
C1732      H1737   1.083       .  S
C1733      C1734   1.421       .  A
C1734      S1738   1.800       .  S
C1735      C1740   1.407       .  A
C1735      C1744   1.400       .  A
S1736      H1752   1.406       .  S
S1738      H1749   1.401       .  S
C1740      C1741   1.403       .  A
C1740      S1745   1.806       .  S
C1741      C1742   1.408       .  A
C1741      H1746   1.083       .  S
C1742      C1743   1.417       .  A
C1743      C1744   1.399       .  A
C1743      S1747   1.802       .  S
C1744      H1748   1.084       .  S
S1745      H1750   1.407       .  S
S1747      H1751   1.408       .  S
C1753      C1754   1.401       .  A
C1753      C1758   1.399       .  A
C1753      H1763   1.084       .  S
C1754      C1759   1.481       .  S
C1754      C1755   1.411       .  A
C1755      C1756   1.400       .  A
C1755      S1760   1.804       .  S
C1756      C1757   1.407       .  A
C1756      H1761   1.084       .  S
C1757      C1758   1.418       .  A
C1758      S1762   1.803       .  S
C1759      C1764   1.409       .  A
C1759      C1768   1.402       .  A
S1760      H1776   1.405       .  S
S1762      H1773   1.408       .  S
C1764      C1765   1.403       .  A
C1764      S1769   1.807       .  S
C1765      C1766   1.405       .  A
C1765      H1770   1.083       .  S
C1766      C1767   1.414       .  A
C1767      C1768   1.400       .  A
C1767      S1771   1.802       .  S
C1768      H1772   1.084       .  S
S1769      H1774   1.407       .  S
S1771      H1775   1.407       .  S
C1777      C1778   1.401       .  A
C1777      C1782   1.400       .  A
C1777      H1787   1.084       .  S
C1778      C1783   1.481       .  S
C1778      C1779   1.410       .  A
C1779      C1780   1.399       .  A
C1779      S1784   1.804       .  S
C1780      C1781   1.408       .  A
C1780      H1785   1.084       .  S
C1781      C1782   1.419       .  A
C1782      S1786   1.799       .  S
C1783      C1788   1.409       .  A
C1783      C1792   1.402       .  A
S1784      H1800   1.406       .  S
S1786      H1797   1.407       .  S
C1788      C1789   1.402       .  A
C1788      S1793   1.807       .  S
C1789      C1790   1.404       .  A
C1789      H1794   1.082       .  S
C1790      C1791   1.415       .  A
C1791      C1792   1.400       .  A
C1791      S1795   1.803       .  S
C1792      H1796   1.084       .  S
S1793      H1798   1.407       .  S
S1795      H1799   1.407       .  S
C1801      C1802   1.402       .  A
C1801      C1806   1.400       .  A
C1801      H1811   1.084       .  S
C1802      C1807   1.479       .  S
C1802      C1803   1.412       .  A
C1803      C1804   1.398       .  A
C1803      S1808   1.805       .  S
C1804      C1805   1.404       .  A
C1804      H1809   1.084       .  S
C1805      C1806   1.414       .  A
C1806      S1810   1.803       .  S
C1807      C1812   1.408       .  A
C1807      C1816   1.401       .  A
S1808      H1824   1.405       .  S
S1810      H1821   1.407       .  S
C1812      C1813   1.401       .  A
C1812      S1817   1.807       .  S
C1813      C1814   1.406       .  A
C1813      H1818   1.083       .  S
C1814      C1815   1.417       .  A
C1815      C1816   1.400       .  A
C1815      S1819   1.802       .  S
C1816      H1820   1.084       .  S
S1817      H1822   1.407       .  S
S1819      H1823   1.407       .  S
C1825      C1826   1.399       .  A
C1825      C1830   1.397       .  A
C1825      H1835   1.084       .  S
C1826      C1831   1.477       .  S
C1826      C1827   1.411       .  A
C1827      C1828   1.400       .  A
C1827      S1832   1.805       .  S
C1828      C1829   1.408       .  A
C1828      H1833   1.084       .  S
C1829      C1830   1.417       .  A
C1830      S1834   1.798       .  S
C1831      C1836   1.408       .  A
C1831      C1840   1.402       .  A
S1832      H1848   1.405       .  S
S1834      H1845   1.403       .  S
C1836      C1837   1.401       .  A
C1836      S1841   1.807       .  S
C1837      C1838   1.405       .  A
C1837      H1842   1.083       .  S
C1838      C1839   1.415       .  A
C1839      C1840   1.399       .  A
C1839      S1843   1.803       .  S
C1840      H1844   1.084       .  S
S1841      H1846   1.407       .  S
S1843      H1847   1.407       .  S
C1849      C1850   1.400       .  A
C1849      C1854   1.399       .  A
C1849      H1859   1.084       .  S
C1850      C1855   1.479       .  S
C1850      C1851   1.410       .  A
C1851      C1852   1.398       .  A
C1851      S1856   1.805       .  S
C1852      C1853   1.409       .  A
C1852      H1857   1.083       .  S
C1853      C1854   1.421       .  A
C1854      S1858   1.801       .  S
C1855      C1860   1.409       .  A
C1855      C1864   1.401       .  A
S1856      H1872   1.406       .  S
S1858      H1869   1.402       .  S
C1860      C1861   1.402       .  A
C1860      S1865   1.807       .  S
C1861      C1862   1.405       .  A
C1861      H1866   1.083       .  S
C1862      C1863   1.415       .  A
C1863      C1864   1.398       .  A
C1863      S1867   1.803       .  S
C1864      H1868   1.084       .  S
S1865      H1870   1.407       .  S
S1867      H1871   1.408       .  S
C1873      C1874   1.401       .  A
C1873      C1878   1.400       .  A
C1873      H1883   1.084       .  S
C1874      C1879   1.479       .  S
C1874      C1875   1.413       .  A
C1875      C1876   1.400       .  A
C1875      S1880   1.805       .  S
C1876      C1877   1.405       .  A
C1876      H1881   1.084       .  S
C1877      C1878   1.414       .  A
C1878      S1882   1.803       .  S
C1879      C1884   1.408       .  A
C1879      C1888   1.401       .  A
S1880      H1896   1.405       .  S
S1882      H1893   1.407       .  S
C1884      C1885   1.403       .  A
C1884      S1889   1.806       .  S
C1885      C1886   1.406       .  A
C1885      H1890   1.083       .  S
C1886      C1887   1.416       .  A
C1887      C1888   1.399       .  A
C1887      S1891   1.803       .  S
C1888      H1892   1.084       .  S
S1889      H1894   1.407       .  S
S1891      H1895   1.408       .  S
C1897      C1898   1.402       .  A
C1897      C1902   1.400       .  A
C1897      H1907   1.084       .  S
C1898      C1903   1.482       .  S
C1898      C1899   1.410       .  A
C1899      C1900   1.398       .  A
C1899      S1904   1.805       .  S
C1900      C1901   1.410       .  A
C1900      H1905   1.083       .  S
C1901      C1902   1.420       .  A
C1902      S1906   1.801       .  S
C1903      C1908   1.409       .  A
C1903      C1912   1.402       .  A
S1904      H1920   1.406       .  S
S1906      H1917   1.408       .  S
C1908      C1909   1.401       .  A
C1908      S1913   1.808       .  S
C1909      C1910   1.407       .  A
C1909      H1914   1.082       .  S
C1910      C1911   1.418       .  A
C1911      C1912   1.400       .  A
C1911      S1915   1.802       .  S
C1912      H1916   1.084       .  S
S1913      H1918   1.407       .  S
S1915      H1919   1.408       .  S
C1921      C1922   1.402       .  A
C1921      C1926   1.399       .  A
C1921      H1931   1.084       .  S
C1922      C1927   1.484       .  S
C1922      C1923   1.414       .  A
C1923      C1924   1.401       .  A
C1923      S1928   1.804       .  S
C1924      C1925   1.403       .  A
C1924      H1929   1.084       .  S
C1925      C1926   1.415       .  A
C1926      S1930   1.804       .  S
C1927      C1932   1.409       .  A
C1927      C1936   1.400       .  A
S1928      H1944   1.406       .  S
S1930      H1941   1.407       .  S
C1932      C1933   1.404       .  A
C1932      S1937   1.807       .  S
C1933      C1934   1.409       .  A
C1933      H1938   1.082       .  S
C1934      C1935   1.419       .  A
C1935      C1936   1.399       .  A
C1935      S1939   1.799       .  S
C1936      H1940   1.084       .  S
S1937      H1942   1.407       .  S
S1939      H1943   1.408       .  S
C1945      C1946   1.402       .  A
C1945      C1950   1.400       .  A
C1945      H1955   1.084       .  S
C1946      C1951   1.477       .  S
C1946      C1947   1.411       .  A
C1947      C1948   1.397       .  A
C1947      S1952   1.805       .  S
C1948      C1949   1.404       .  A
C1948      H1953   1.084       .  S
C1949      C1950   1.413       .  A
C1950      S1954   1.803       .  S
C1951      C1956   1.409       .  A
C1951      C1960   1.399       .  A
S1952      H1968   1.406       .  S
S1954      H1965   1.407       .  S
C1956      C1957   1.402       .  A
C1956      S1961   1.807       .  S
C1957      C1958   1.406       .  A
C1957      H1962   1.083       .  S
C1958      C1959   1.418       .  A
C1959      C1960   1.398       .  A
C1959      S1963   1.803       .  S
C1960      H1964   1.084       .  S
S1961      H1966   1.407       .  S
S1963      H1967   1.408       .  S
C1969      C1970   1.402       .  A
C1969      C1974   1.399       .  A
C1969      H1979   1.084       .  S
C1970      C1975   1.481       .  S
C1970      C1971   1.413       .  A
C1971      C1972   1.403       .  A
C1971      S1976   1.805       .  S
C1972      C1973   1.405       .  A
C1972      H1977   1.084       .  S
C1973      C1974   1.414       .  A
C1974      S1978   1.800       .  S
C1975      C1980   1.408       .  A
C1975      C1984   1.402       .  A
S1976      H1992   1.404       .  S
S1978      H1989   1.407       .  S
C1980      C1981   1.402       .  A
C1980      S1985   1.807       .  S
C1981      C1982   1.406       .  A
C1981      H1986   1.083       .  S
C1982      C1983   1.417       .  A
C1983      C1984   1.403       .  A
C1983      S1987   1.803       .  S
C1984      H1988   1.084       .  S
S1985      H1990   1.407       .  S
S1987      H1991   1.408       .  S
C1993      C1994   1.401       .  A
C1993      C1998   1.401       .  A
C1993      H2003   1.084       .  S
C1994      C1999   1.480       .  S
C1994      C1995   1.409       .  A
C1995      C1996   1.397       .  A
C1995      S2000   1.805       .  S
C1996      C1997   1.410       .  A
C1996      H2001   1.083       .  S
C1997      C1998   1.421       .  A
C1998      S2002   1.801       .  S
C1999      C2004   1.409       .  A
C1999      C2008   1.400       .  A
S2000      H2016   1.405       .  S
S2002      H2013   1.406       .  S
C2004      C2005   1.403       .  A
C2004      S2009   1.807       .  S
C2005      C2006   1.407       .  A
C2005      H2010   1.082       .  S
C2006      C2007   1.418       .  A
C2007      C2008   1.398       .  A
C2007      S2011   1.802       .  S
C2008      H2012   1.084       .  S
S2009      H2014   1.406       .  S
S2011      H2015   1.408       .  S
C2017      C2018   1.399       .  A
C2017      C2022   1.398       .  A
C2017      H2027   1.084       .  S
C2018      C2023   1.479       .  S
C2018      C2019   1.410       .  A
C2019      C2020   1.400       .  A
C2019      S2024   1.804       .  S
C2020      C2021   1.409       .  A
C2020      H2025   1.083       .  S
C2021      C2022   1.422       .  A
C2022      S2026   1.801       .  S
C2023      C2028   1.410       .  A
C2023      C2032   1.400       .  A
S2024      H2040   1.406       .  S
S2026      H2037   1.403       .  S
C2028      C2029   1.404       .  A
C2028      S2033   1.807       .  S
C2029      C2030   1.406       .  A
C2029      H2034   1.083       .  S
C2030      C2031   1.416       .  A
C2031      C2032   1.396       .  A
C2031      S2035   1.802       .  S
C2032      H2036   1.084       .  S
S2033      H2038   1.407       .  S
S2035      H2039   1.405       .  S
C2041      C2042   1.403       .  A
C2041      C2046   1.400       .  A
C2041      H2051   1.084       .  S
C2042      C2047   1.478       .  S
C2042      C2043   1.410       .  A
C2043      C2044   1.398       .  A
C2043      S2048   1.804       .  S
C2044      C2045   1.404       .  A
C2044      H2049   1.084       .  S
C2045      C2046   1.414       .  A
C2046      S2050   1.803       .  S
C2047      C2052   1.407       .  A
C2047      C2056   1.401       .  A
S2048      H2064   1.405       .  S
S2050      H2061   1.407       .  S
C2052      C2053   1.403       .  A
C2052      S2057   1.806       .  S
C2053      C2054   1.407       .  A
C2053      H2058   1.083       .  S
C2054      C2055   1.415       .  A
C2055      C2056   1.399       .  A
C2055      S2059   1.802       .  S
C2056      H2060   1.084       .  S
S2057      H2062   1.407       .  S
S2059      H2063   1.407       .  S
C2065      C2066   1.402       .  A
C2065      C2070   1.398       .  A
C2065      H2075   1.084       .  S
C2066      C2071   1.477       .  S
C2066      C2067   1.412       .  A
C2067      C2068   1.399       .  A
C2067      S2072   1.804       .  S
C2068      C2069   1.403       .  A
C2068      H2073   1.084       .  S
C2069      C2070   1.413       .  A
C2070      S2074   1.804       .  S
C2071      C2076   1.408       .  A
C2071      C2080   1.400       .  A
S2072      H2088   1.405       .  S
S2074      H2085   1.407       .  S
C2076      C2077   1.402       .  A
C2076      S2081   1.806       .  S
C2077      C2078   1.405       .  A
C2077      H2082   1.083       .  S
C2078      C2079   1.416       .  A
C2079      C2080   1.399       .  A
C2079      S2083   1.803       .  S
C2080      H2084   1.084       .  S
S2081      H2086   1.407       .  S
S2083      H2087   1.407       .  S
C2089      C2090   1.401       .  A
C2089      C2094   1.400       .  A
C2089      H2099   1.084       .  S
C2090      C2095   1.478       .  S
C2090      C2091   1.411       .  A
C2091      C2092   1.399       .  A
C2091      S2096   1.804       .  S
C2092      C2093   1.405       .  A
C2092      H2097   1.084       .  S
C2093      C2094   1.417       .  A
C2094      S2098   1.803       .  S
C2095      C2100   1.408       .  A
C2095      C2104   1.401       .  A
S2096      H2112   1.405       .  S
S2098      H2109   1.406       .  S
C2100      C2101   1.404       .  A
C2100      S2105   1.806       .  S
C2101      C2102   1.406       .  A
C2101      H2106   1.083       .  S
C2102      C2103   1.415       .  A
C2103      C2104   1.399       .  A
C2103      S2107   1.803       .  S
C2104      H2108   1.084       .  S
S2105      H2110   1.407       .  S
S2107      H2111   1.407       .  S
C2113      C2114   1.399       .  A
C2113      C2118   1.398       .  A
C2113      H2123   1.084       .  S
C2114      C2119   1.479       .  S
C2114      C2115   1.410       .  A
C2115      C2116   1.398       .  A
C2115      S2120   1.805       .  S
C2116      C2117   1.409       .  A
C2116      H2121   1.083       .  S
C2117      C2118   1.422       .  A
C2118      S2122   1.801       .  S
C2119      C2124   1.410       .  A
C2119      C2128   1.402       .  A
S2120      H2136   1.406       .  S
S2122      H2133   1.403       .  S
C2124      C2125   1.402       .  A
C2124      S2129   1.807       .  S
C2125      C2126   1.403       .  A
C2125      H2130   1.082       .  S
C2126      C2127   1.412       .  A
C2127      C2128   1.396       .  A
C2127      S2131   1.804       .  S
C2128      H2132   1.084       .  S
S2129      H2134   1.407       .  S
S2131      H2135   1.405       .  S
C2137      C2138   1.401       .  A
C2137      C2142   1.399       .  A
C2137      H2147   1.084       .  S
C2138      C2143   1.480       .  S
C2138      C2139   1.413       .  A
C2139      C2140   1.401       .  A
C2139      S2144   1.805       .  S
C2140      C2141   1.405       .  A
C2140      H2145   1.084       .  S
C2141      C2142   1.416       .  A
C2142      S2146   1.803       .  S
C2143      C2148   1.409       .  A
C2143      C2152   1.402       .  A
S2144      H2160   1.405       .  S
S2146      H2157   1.408       .  S
C2148      C2149   1.404       .  A
C2148      S2153   1.806       .  S
C2149      C2150   1.404       .  A
C2149      H2154   1.083       .  S
C2150      C2151   1.413       .  A
C2151      C2152   1.400       .  A
C2151      S2155   1.804       .  S
C2152      H2156   1.084       .  S
S2153      H2158   1.407       .  S
S2155      H2159   1.407       .  S
C2161      C2162   1.401       .  A
C2161      C2166   1.399       .  A
C2161      H2171   1.084       .  S
C2162      C2167   1.479       .  S
C2162      C2163   1.410       .  A
C2163      C2164   1.399       .  A
C2163      S2168   1.804       .  S
C2164      C2165   1.407       .  A
C2164      H2169   1.084       .  S
C2165      C2166   1.419       .  A
C2166      S2170   1.803       .  S
C2167      C2172   1.409       .  A
C2167      C2176   1.403       .  A
S2168      H2184   1.406       .  S
S2170      H2181   1.408       .  S
C2172      C2173   1.401       .  A
C2172      S2177   1.807       .  S
C2173      C2174   1.403       .  A
C2173      H2178   1.081       .  S
C2174      C2175   1.413       .  A
C2175      C2176   1.399       .  A
C2175      S2179   1.804       .  S
C2176      H2180   1.084       .  S
S2177      H2182   1.407       .  S
S2179      H2183   1.407       .  S
C2185      C2186   1.401       .  A
C2185      C2190   1.399       .  A
C2185      H2195   1.084       .  S
C2186      C2191   1.479       .  S
C2186      C2187   1.413       .  A
C2187      C2188   1.400       .  A
C2187      S2192   1.805       .  S
C2188      C2189   1.404       .  A
C2188      H2193   1.084       .  S
C2189      C2190   1.414       .  A
C2190      S2194   1.804       .  S
C2191      C2196   1.408       .  A
C2191      C2200   1.399       .  A
S2192      H2208   1.405       .  S
S2194      H2205   1.406       .  S
C2196      C2197   1.404       .  A
C2196      S2201   1.806       .  S
C2197      C2198   1.406       .  A
C2197      H2202   1.083       .  S
C2198      C2199   1.418       .  A
C2199      C2200   1.398       .  A
C2199      S2203   1.802       .  S
C2200      H2204   1.084       .  S
S2201      H2206   1.407       .  S
S2203      H2207   1.405       .  S
C2209      C2210   1.400       .  A
C2209      C2214   1.398       .  A
C2209      H2219   1.084       .  S
C2210      C2215   1.483       .  S
C2210      C2211   1.410       .  A
C2211      C2212   1.401       .  A
C2211      S2216   1.804       .  S
C2212      C2213   1.410       .  A
C2212      H2217   1.083       .  S
C2213      C2214   1.421       .  A
C2214      S2218   1.801       .  S
C2215      C2220   1.410       .  A
C2215      C2224   1.402       .  A
S2216      H2232   1.406       .  S
S2218      H2229   1.404       .  S
C2220      C2221   1.403       .  A
C2220      S2225   1.807       .  S
C2221      C2222   1.406       .  A
C2221      H2226   1.083       .  S
C2222      C2223   1.416       .  A
C2223      C2224   1.400       .  A
C2223      S2227   1.803       .  S
C2224      H2228   1.084       .  S
S2225      H2230   1.407       .  S
S2227      H2231   1.408       .  S
C2233      C2234   1.400       .  A
C2233      C2238   1.400       .  A
C2233      H2243   1.084       .  S
C2234      C2239   1.478       .  S
C2234      C2235   1.410       .  A
C2235      C2236   1.400       .  A
C2235      S2240   1.804       .  S
C2236      C2237   1.407       .  A
C2236      H2241   1.084       .  S
C2237      C2238   1.418       .  A
C2238      S2242   1.800       .  S
C2239      C2244   1.408       .  A
C2239      C2248   1.402       .  A
S2240      H2256   1.405       .  S
S2242      H2253   1.406       .  S
C2244      C2245   1.402       .  A
C2244      S2249   1.806       .  S
C2245      C2246   1.405       .  A
C2245      H2250   1.083       .  S
C2246      C2247   1.415       .  A
C2247      C2248   1.400       .  A
C2247      S2251   1.803       .  S
C2248      H2252   1.084       .  S
S2249      H2254   1.407       .  S
S2251      H2255   1.407       .  S
C2257      C2258   1.401       .  A
C2257      C2262   1.399       .  A
C2257      H2267   1.084       .  S
C2258      C2263   1.480       .  S
C2258      C2259   1.412       .  A
C2259      C2260   1.401       .  A
C2259      S2264   1.804       .  S
C2260      C2261   1.405       .  A
C2260      H2265   1.084       .  S
C2261      C2262   1.416       .  A
C2262      S2266   1.803       .  S
C2263      C2268   1.407       .  A
C2263      C2272   1.400       .  A
S2264      H2280   1.405       .  S
S2266      H2277   1.407       .  S
C2268      C2269   1.403       .  A
C2268      S2273   1.806       .  S
C2269      C2270   1.408       .  A
C2269      H2274   1.082       .  S
C2270      C2271   1.418       .  A
C2271      C2272   1.401       .  A
C2271      S2275   1.802       .  S
C2272      H2276   1.084       .  S
S2273      H2278   1.407       .  S
S2275      H2279   1.408       .  S
C2281      C2282   1.401       .  A
C2281      C2286   1.398       .  A
C2281      H2291   1.084       .  S
C2282      C2287   1.480       .  S
C2282      C2283   1.413       .  A
C2283      C2284   1.402       .  A
C2283      S2288   1.806       .  S
C2284      C2285   1.408       .  A
C2284      H2289   1.084       .  S
C2285      C2286   1.416       .  A
C2286      S2290   1.802       .  S
C2287      C2292   1.409       .  A
C2287      C2296   1.401       .  A
S2288      H2304   1.404       .  S
S2290      H2301   1.408       .  S
C2292      C2293   1.405       .  A
C2292      S2297   1.806       .  S
C2293      C2294   1.406       .  A
C2293      H2298   1.083       .  S
C2294      C2295   1.415       .  A
C2295      C2296   1.399       .  A
C2295      S2299   1.804       .  S
C2296      H2300   1.084       .  S
S2297      H2302   1.407       .  S
S2299      H2303   1.403       .  S
C2305      C2306   1.400       .  A
C2305      C2310   1.399       .  A
C2305      H2315   1.084       .  S
C2306      C2311   1.476       .  S
C2306      C2307   1.411       .  A
C2307      C2308   1.399       .  A
C2307      S2312   1.805       .  S
C2308      C2309   1.405       .  A
C2308      H2313   1.084       .  S
C2309      C2310   1.416       .  A
C2310      S2314   1.803       .  S
C2311      C2316   1.407       .  A
C2311      C2320   1.401       .  A
S2312      H2328   1.404       .  S
S2314      H2325   1.408       .  S
C2316      C2317   1.401       .  A
C2316      S2321   1.806       .  S
C2317      C2318   1.405       .  A
C2317      H2322   1.083       .  S
C2318      C2319   1.415       .  A
C2319      C2320   1.399       .  A
C2319      S2323   1.803       .  S
C2320      H2324   1.084       .  S
S2321      H2326   1.407       .  S
S2323      H2327   1.407       .  S
C2329      C2330   1.401       .  A
C2329      C2334   1.399       .  A
C2329      H2339   1.084       .  S
C2330      C2335   1.478       .  S
C2330      C2331   1.411       .  A
C2331      C2332   1.399       .  A
C2331      S2336   1.804       .  S
C2332      C2333   1.406       .  A
C2332      H2337   1.084       .  S
C2333      C2334   1.417       .  A
C2334      S2338   1.803       .  S
C2335      C2340   1.409       .  A
C2335      C2344   1.401       .  A
S2336      H2352   1.406       .  S
S2338      H2349   1.408       .  S
C2340      C2341   1.404       .  A
C2340      S2345   1.806       .  S
C2341      C2342   1.404       .  A
C2341      H2346   1.083       .  S
C2342      C2343   1.414       .  A
C2343      C2344   1.397       .  A
C2343      S2347   1.803       .  S
C2344      H2348   1.084       .  S
S2345      H2350   1.407       .  S
S2347      H2351   1.407       .  S
C2353      C2354   1.402       .  A
C2353      C2358   1.400       .  A
C2353      H2363   1.084       .  S
C2354      C2359   1.478       .  S
C2354      C2355   1.411       .  A
C2355      C2356   1.398       .  A
C2355      S2360   1.805       .  S
C2356      C2357   1.404       .  A
C2356      H2361   1.084       .  S
C2357      C2358   1.415       .  A
C2358      S2362   1.804       .  S
C2359      C2364   1.408       .  A
C2359      C2368   1.401       .  A
S2360      H2376   1.406       .  S
S2362      H2373   1.404       .  S
C2364      C2365   1.401       .  A
C2364      S2369   1.807       .  S
C2365      C2366   1.405       .  A
C2365      H2370   1.083       .  S
C2366      C2367   1.417       .  A
C2367      C2368   1.399       .  A
C2367      S2371   1.803       .  S
C2368      H2372   1.084       .  S
S2369      H2374   1.407       .  S
S2371      H2375   1.407       .  S
C2377      C2378   1.400       .  A
C2377      C2382   1.399       .  A
C2377      H2387   1.084       .  S
C2378      C2383   1.477       .  S
C2378      C2379   1.410       .  A
C2379      C2380   1.398       .  A
C2379      S2384   1.805       .  S
C2380      C2381   1.407       .  A
C2380      H2385   1.084       .  S
C2381      C2382   1.418       .  A
C2382      S2386   1.802       .  S
C2383      C2388   1.408       .  A
C2383      C2392   1.400       .  A
S2384      H2400   1.405       .  S
S2386      H2397   1.408       .  S
C2388      C2389   1.403       .  A
C2388      S2393   1.807       .  S
C2389      C2390   1.406       .  A
C2389      H2394   1.083       .  S
C2390      C2391   1.417       .  A
C2391      C2392   1.399       .  A
C2391      S2395   1.803       .  S
C2392      H2396   1.084       .  S
S2393      H2398   1.407       .  S
S2395      H2399   1.408       .  S
C2401      C2402   1.403       .  A
C2401      C2406   1.399       .  A
C2401      H2411   1.084       .  S
C2402      C2407   1.481       .  S
C2402      C2403   1.412       .  A
C2403      C2404   1.400       .  A
C2403      S2408   1.804       .  S
C2404      C2405   1.405       .  A
C2404      H2409   1.084       .  S
C2405      C2406   1.415       .  A
C2406      S2410   1.803       .  S
C2407      C2412   1.410       .  A
C2407      C2416   1.401       .  A
S2408      H2424   1.406       .  S
S2410      H2421   1.408       .  S
C2412      C2413   1.403       .  A
C2412      S2417   1.807       .  S
C2413      C2414   1.406       .  A
C2413      H2418   1.083       .  S
C2414      C2415   1.417       .  A
C2415      C2416   1.399       .  A
C2415      S2419   1.803       .  S
C2416      H2420   1.084       .  S
S2417      H2422   1.407       .  S
S2419      H2423   1.408       .  S
C2425      C2426   1.403       .  A
C2425      C2430   1.400       .  A
C2425      H2435   1.084       .  S
C2426      C2431   1.480       .  S
C2426      C2427   1.412       .  A
C2427      C2428   1.398       .  A
C2427      S2432   1.804       .  S
C2428      C2429   1.403       .  A
C2428      H2433   1.084       .  S
C2429      C2430   1.414       .  A
C2430      S2434   1.804       .  S
C2431      C2436   1.407       .  A
C2431      C2440   1.400       .  A
S2432      H2448   1.406       .  S
S2434      H2445   1.407       .  S
C2436      C2437   1.402       .  A
C2436      S2441   1.807       .  S
C2437      C2438   1.408       .  A
C2437      H2442   1.082       .  S
C2438      C2439   1.418       .  A
C2439      C2440   1.402       .  A
C2439      S2443   1.808       .  S
C2440      H2444   1.083       .  S
S2441      H2446   1.407       .  S
S2443      H2447   1.407       .  S
C2449      C2450   1.402       .  A
C2449      C2454   1.399       .  A
C2449      H2459   1.084       .  S
C2450      C2455   1.480       .  S
C2450      C2451   1.412       .  A
C2451      C2452   1.402       .  A
C2451      S2456   1.804       .  S
C2452      C2453   1.405       .  A
C2452      H2457   1.084       .  S
C2453      C2454   1.414       .  A
C2454      S2458   1.803       .  S
C2455      C2460   1.408       .  A
C2455      C2464   1.401       .  A
S2456      H2472   1.406       .  S
S2458      H2469   1.407       .  S
C2460      C2461   1.403       .  A
C2460      S2465   1.806       .  S
C2461      C2462   1.406       .  A
C2461      H2466   1.082       .  S
C2462      C2463   1.416       .  A
C2463      C2464   1.400       .  A
C2463      S2467   1.803       .  S
C2464      H2468   1.084       .  S
S2465      H2470   1.407       .  S
S2467      H2471   1.408       .  S
C2473      C2474   1.402       .  A
C2473      C2478   1.401       .  A
C2473      H2483   1.084       .  S
C2474      C2479   1.482       .  S
C2474      C2475   1.411       .  A
C2475      C2476   1.398       .  A
C2475      S2480   1.805       .  S
C2476      C2477   1.406       .  A
C2476      H2481   1.084       .  S
C2477      C2478   1.418       .  A
C2478      S2482   1.802       .  S
C2479      C2484   1.410       .  A
C2479      C2488   1.402       .  A
S2480      H2496   1.406       .  S
S2482      H2493   1.408       .  S
C2484      C2485   1.404       .  A
C2484      S2489   1.806       .  S
C2485      C2486   1.403       .  A
C2485      H2490   1.083       .  S
C2486      C2487   1.415       .  A
C2487      C2488   1.399       .  A
C2487      S2491   1.803       .  S
C2488      H2492   1.084       .  S
S2489      H2494   1.407       .  S
S2491      H2495   1.406       .  S
C2497      C2498   1.402       .  A
C2497      C2502   1.402       .  A
C2497      H2507   1.084       .  S
C2498      C2503   1.483       .  S
C2498      C2499   1.412       .  A
C2499      C2500   1.401       .  A
C2499      S2504   1.804       .  S
C2500      C2501   1.406       .  A
C2500      H2505   1.084       .  S
C2501      C2502   1.416       .  A
C2502      S2506   1.803       .  S
C2503      C2508   1.409       .  A
C2503      C2512   1.400       .  A
S2504      H2520   1.405       .  S
S2506      H2517   1.407       .  S
C2508      C2509   1.406       .  A
C2508      S2513   1.806       .  S
C2509      C2510   1.407       .  A
C2509      H2514   1.082       .  S
C2510      C2511   1.419       .  A
C2511      C2512   1.401       .  A
C2511      S2515   1.803       .  S
C2512      H2516   1.084       .  S
S2513      H2518   1.407       .  S
S2515      H2519   1.408       .  S
C2521      C2522   1.403       .  A
C2521      C2526   1.400       .  A
C2521      H2531   1.084       .  S
C2522      C2527   1.483       .  S
C2522      C2523   1.412       .  A
C2523      C2524   1.402       .  A
C2523      S2528   1.804       .  S
C2524      C2525   1.405       .  A
C2524      H2529   1.084       .  S
C2525      C2526   1.413       .  A
C2526      S2530   1.803       .  S
C2527      C2532   1.408       .  A
C2527      C2536   1.401       .  A
S2528      H2544   1.406       .  S
S2530      H2541   1.407       .  S
C2532      C2533   1.404       .  A
C2532      S2537   1.806       .  S
C2533      C2534   1.408       .  A
C2533      H2538   1.082       .  S
C2534      C2535   1.419       .  A
C2535      C2536   1.401       .  A
C2535      S2539   1.802       .  S
C2536      H2540   1.084       .  S
S2537      H2542   1.407       .  S
S2539      H2543   1.408       .  S
C2545      C2546   1.402       .  A
C2545      C2550   1.399       .  A
C2545      H2555   1.084       .  S
C2546      C2551   1.479       .  S
C2546      C2547   1.412       .  A
C2547      C2548   1.400       .  A
C2547      S2552   1.805       .  S
C2548      C2549   1.406       .  A
C2548      H2553   1.084       .  S
C2549      C2550   1.415       .  A
C2550      S2554   1.803       .  S
C2551      C2556   1.409       .  A
C2551      C2560   1.401       .  A
S2552      H2568   1.405       .  S
S2554      H2565   1.408       .  S
C2556      C2557   1.404       .  A
C2556      S2561   1.806       .  S
C2557      C2558   1.405       .  A
C2557      H2562   1.083       .  S
C2558      C2559   1.415       .  A
C2559      C2560   1.399       .  A
C2559      S2563   1.803       .  S
C2560      H2564   1.084       .  S
S2561      H2566   1.407       .  S
S2563      H2567   1.407       .  S
C2569      C2570   1.400       .  A
C2569      C2574   1.399       .  A
C2569      H2579   1.084       .  S
C2570      C2575   1.478       .  S
C2570      C2571   1.411       .  A
C2571      C2572   1.400       .  A
C2571      S2576   1.805       .  S
C2572      C2573   1.407       .  A
C2572      H2577   1.084       .  S
C2573      C2574   1.418       .  A
C2574      S2578   1.802       .  S
C2575      C2580   1.408       .  A
C2575      C2584   1.401       .  A
S2576      H2592   1.405       .  S
S2578      H2589   1.408       .  S
C2580      C2581   1.402       .  A
C2580      S2585   1.806       .  S
C2581      C2582   1.405       .  A
C2581      H2586   1.083       .  S
C2582      C2583   1.416       .  A
C2583      C2584   1.400       .  A
C2583      S2587   1.803       .  S
C2584      H2588   1.084       .  S
S2585      H2590   1.407       .  S
S2587      H2591   1.407       .  S
C2593      C2594   1.402       .  A
C2593      C2598   1.400       .  A
C2593      H2603   1.084       .  S
C2594      C2599   1.480       .  S
C2594      C2595   1.412       .  A
C2595      C2596   1.399       .  A
C2595      S2600   1.804       .  S
C2596      C2597   1.405       .  A
C2596      H2601   1.084       .  S
C2597      C2598   1.415       .  A
C2598      S2602   1.803       .  S
C2599      C2604   1.409       .  A
C2599      C2608   1.400       .  A
S2600      H2616   1.406       .  S
S2602      H2613   1.408       .  S
C2604      C2605   1.405       .  A
C2604      S2609   1.806       .  S
C2605      C2606   1.406       .  A
C2605      H2610   1.083       .  S
C2606      C2607   1.416       .  A
C2607      C2608   1.398       .  A
C2607      S2611   1.803       .  S
C2608      H2612   1.084       .  S
S2609      H2614   1.407       .  S
S2611      H2615   1.408       .  S
C2617      C2618   1.401       .  A
C2617      C2622   1.399       .  A
C2617      H2627   1.084       .  S
C2618      C2623   1.478       .  S
C2618      C2619   1.412       .  A
C2619      C2620   1.400       .  A
C2619      S2624   1.805       .  S
C2620      C2621   1.405       .  A
C2620      H2625   1.084       .  S
C2621      C2622   1.415       .  A
C2622      S2626   1.804       .  S
C2623      C2628   1.408       .  A
C2623      C2632   1.401       .  A
S2624      H2640   1.404       .  S
S2626      H2637   1.408       .  S
C2628      C2629   1.403       .  A
C2628      S2633   1.806       .  S
C2629      C2630   1.405       .  A
C2629      H2634   1.083       .  S
C2630      C2631   1.415       .  A
C2631      C2632   1.399       .  A
C2631      S2635   1.803       .  S
C2632      H2636   1.084       .  S
S2633      H2638   1.407       .  S
S2635      H2639   1.406       .  S
C2641      C2642   1.401       .  A
C2641      C2646   1.400       .  A
C2641      H2651   1.084       .  S
C2642      C2647   1.476       .  S
C2642      C2643   1.411       .  A
C2643      C2644   1.398       .  A
C2643      S2648   1.804       .  S
C2644      C2645   1.404       .  A
C2644      H2649   1.084       .  S
C2645      C2646   1.415       .  A
C2646      S2650   1.803       .  S
C2647      C2652   1.408       .  A
C2647      C2656   1.401       .  A
S2648      H2664   1.404       .  S
S2650      H2661   1.408       .  S
C2652      C2653   1.402       .  A
C2652      S2657   1.807       .  S
C2653      C2654   1.405       .  A
C2653      H2658   1.083       .  S
C2654      C2655   1.414       .  A
C2655      C2656   1.399       .  A
C2655      S2659   1.803       .  S
C2656      H2660   1.084       .  S
S2657      H2662   1.407       .  S
S2659      H2663   1.407       .  S
C2665      C2666   1.401       .  A
C2665      C2670   1.399       .  A
C2665      H2675   1.084       .  S
C2666      C2671   1.479       .  S
C2666      C2667   1.412       .  A
C2667      C2668   1.400       .  A
C2667      S2672   1.806       .  S
C2668      C2669   1.407       .  A
C2668      H2673   1.084       .  S
C2669      C2670   1.418       .  A
C2670      S2674   1.802       .  S
C2671      C2676   1.410       .  A
C2671      C2680   1.401       .  A
S2672      H2688   1.405       .  S
S2674      H2685   1.408       .  S
C2676      C2677   1.404       .  A
C2676      S2681   1.806       .  S
C2677      C2678   1.405       .  A
C2677      H2682   1.083       .  S
C2678      C2679   1.413       .  A
C2679      C2680   1.397       .  A
C2679      S2683   1.802       .  S
C2680      H2684   1.084       .  S
S2681      H2686   1.407       .  S
S2683      H2687   1.407       .  S
C2689      C2690   1.402       .  A
C2689      C2694   1.400       .  A
C2689      H2699   1.084       .  S
C2690      C2695   1.481       .  S
C2690      C2691   1.413       .  A
C2691      C2692   1.401       .  A
C2691      S2696   1.804       .  S
C2692      C2693   1.403       .  A
C2692      H2697   1.084       .  S
C2693      C2694   1.414       .  A
C2694      S2698   1.803       .  S
C2695      C2700   1.410       .  A
C2695      C2704   1.400       .  A
S2696      H2712   1.405       .  S
S2698      H2709   1.406       .  S
C2700      C2701   1.405       .  A
C2700      S2705   1.806       .  S
C2701      C2702   1.406       .  A
C2701      H2706   1.083       .  S
C2702      C2703   1.416       .  A
C2703      C2704   1.399       .  A
C2703      S2707   1.803       .  S
C2704      H2708   1.084       .  S
S2705      H2710   1.407       .  S
S2707      H2711   1.408       .  S
C2713      C2714   1.401       .  A
C2713      C2718   1.400       .  A
C2713      H2723   1.084       .  S
C2714      C2719   1.480       .  S
C2714      C2715   1.410       .  A
C2715      C2716   1.398       .  A
C2715      S2720   1.805       .  S
C2716      C2717   1.409       .  A
C2716      H2721   1.083       .  S
C2717      C2718   1.419       .  A
C2718      S2722   1.801       .  S
C2719      C2724   1.409       .  A
C2719      C2728   1.401       .  A
S2720      H2736   1.406       .  S
S2722      H2733   1.408       .  S
C2724      C2725   1.402       .  A
C2724      S2729   1.807       .  S
C2725      C2726   1.405       .  A
C2725      H2730   1.083       .  S
C2726      C2727   1.416       .  A
C2727      C2728   1.399       .  A
C2727      S2731   1.803       .  S
C2728      H2732   1.084       .  S
S2729      H2734   1.407       .  S
S2731      H2735   1.406       .  S
C2737      C2738   1.400       .  A
C2737      C2742   1.398       .  A
C2737      H2747   1.084       .  S
C2738      C2743   1.476       .  S
C2738      C2739   1.409       .  A
C2739      C2740   1.398       .  A
C2739      S2744   1.804       .  S
C2740      C2741   1.408       .  A
C2740      H2745   1.084       .  S
C2741      C2742   1.419       .  A
C2742      S2746   1.800       .  S
C2743      C2748   1.408       .  A
C2743      C2752   1.401       .  A
S2744      H2760   1.406       .  S
S2746      H2757   1.408       .  S
C2748      C2749   1.401       .  A
C2748      S2753   1.807       .  S
C2749      C2750   1.405       .  A
C2749      H2754   1.083       .  S
C2750      C2751   1.416       .  A
C2751      C2752   1.399       .  A
C2751      S2755   1.803       .  S
C2752      H2756   1.084       .  S
S2753      H2758   1.407       .  S
S2755      H2759   1.407       .  S
C2761      C2762   1.401       .  A
C2761      C2766   1.400       .  A
C2761      H2771   1.084       .  S
C2762      C2767   1.479       .  S
C2762      C2763   1.411       .  A
C2763      C2764   1.401       .  A
C2763      S2768   1.805       .  S
C2764      C2765   1.406       .  A
C2764      H2769   1.084       .  S
C2765      C2766   1.417       .  A
C2766      S2770   1.802       .  S
C2767      C2772   1.408       .  A
C2767      C2776   1.399       .  A
S2768      H2784   1.404       .  S
S2770      H2781   1.408       .  S
C2772      C2773   1.405       .  A
C2772      S2777   1.806       .  S
C2773      C2774   1.407       .  A
C2773      H2778   1.083       .  S
C2774      C2775   1.417       .  A
C2775      C2776   1.399       .  A
C2775      S2779   1.803       .  S
C2776      H2780   1.084       .  S
S2777      H2782   1.407       .  S
S2779      H2783   1.408       .  S
C2785      C2786   1.401       .  A
C2785      C2790   1.399       .  A
C2785      H2795   1.084       .  S
C2786      C2791   1.477   1_545  S
C2786      C2787   1.412       .  A
C2787      C2788   1.399       .  A
C2787      S2792   1.805       .  S
C2788      C2789   1.404       .  A
C2788      H2793   1.084       .  S
C2789      C2790   1.414       .  A
C2790      S2794   1.799       .  S
C2791      C2796   1.408       .  A
C2791      C2800   1.401       .  A
S2792      H2808   1.405   1_545  S
S2794      H2805   1.407       .  S
C2796      C2797   1.402       .  A
C2796      S2801   1.806       .  S
C2797      C2798   1.406       .  A
C2797      H2802   1.083       .  S
C2798      C2799   1.414       .  A
C2799      C2800   1.398       .  A
C2799      S2803   1.801       .  S
C2800      H2804   1.084       .  S
S2801      H2806   1.407       .  S
S2803      H2807   1.407       .  S
C2809      C2810   1.401       .  A
C2809      C2814   1.400       .  A
C2809      H2819   1.084       .  S
C2810      C2815   1.482       .  S
C2810      C2811   1.412       .  A
C2811      C2812   1.401       .  A
C2811      S2816   1.805       .  S
C2812      C2813   1.408       .  A
C2812      H2817   1.084       .  S
C2813      C2814   1.417       .  A
C2814      S2818   1.799       .  S
C2815      C2820   1.409       .  A
C2815      C2824   1.402       .  A
S2816      H2832   1.405       .  S
S2818      H2829   1.408       .  S
C2820      C2821   1.403       .  A
C2820      S2825   1.806       .  S
C2821      C2822   1.405       .  A
C2821      H2826   1.083       .  S
C2822      C2823   1.415       .  A
C2823      C2824   1.400       .  A
C2823      S2827   1.803       .  S
C2824      H2828   1.084       .  S
S2825      H2830   1.407       .  S
S2827      H2831   1.407       .  S
C2833      C2834   1.400       .  A
C2833      C2838   1.398       .  A
C2833      H2843   1.084       .  S
C2834      C2839   1.477       .  S
C2834      C2835   1.414       .  A
C2835      C2836   1.402       .  A
C2835      S2840   1.807       .  S
C2836      C2837   1.404       .  A
C2836      H2841   1.084       .  S
C2837      C2838   1.415       .  A
C2838      S2842   1.803       .  S
C2839      C2844   1.408       .  A
C2839      C2848   1.401       .  A
S2840      H2856   1.403       .  S
S2842      H2853   1.407       .  S
C2844      C2845   1.404       .  A
C2844      S2849   1.806       .  S
C2845      C2846   1.405       .  A
C2845      H2850   1.083       .  S
C2846      C2847   1.414       .  A
C2847      C2848   1.399       .  A
C2847      S2851   1.804       .  S
C2848      H2852   1.084       .  S
S2849      H2854   1.407       .  S
S2851      H2855   1.407       .  S
C2857      C2858   1.402       .  A
C2857      C2862   1.401       .  A
C2857      H2867   1.084       .  S
C2858      C2863   1.483   1_655  S
C2858      C2859   1.411       .  A
C2859      C2860   1.398       .  A
C2859      S2864   1.804       .  S
C2860      C2861   1.406       .  A
C2860      H2865   1.084       .  S
C2861      C2862   1.419       .  A
C2862      S2866   1.799       .  S
C2863      C2868   1.409       .  A
C2863      C2872   1.402       .  A
S2864      H2880   1.406   1_655  S
S2866      H2877   1.407       .  S
C2868      C2869   1.403       .  A
C2868      S2873   1.807       .  S
C2869      C2870   1.406       .  A
C2869      H2874   1.083       .  S
C2870      C2871   1.413       .  A
C2871      C2872   1.402       .  A
C2871      S2875   1.807       .  S
C2872      H2876   1.083       .  S
S2873      H2878   1.407       .  S
S2875      H2879   1.407       .  S
C2881      C2882   1.401       .  A
C2881      C2886   1.398       .  A
C2881      H2891   1.084       .  S
C2882      C2887   1.477       .  S
C2882      C2883   1.412       .  A
C2883      C2884   1.400       .  A
C2883      S2888   1.805       .  S
C2884      C2885   1.404       .  A
C2884      H2889   1.084       .  S
C2885      C2886   1.414       .  A
C2886      S2890   1.803       .  S
C2887      C2892   1.407       .  A
C2887      C2896   1.401       .  A
S2888      H2904   1.405       .  S
S2890      H2901   1.407       .  S
C2892      C2893   1.400       .  A
C2892      S2897   1.807       .  S
C2893      C2894   1.407       .  A
C2893      H2898   1.082       .  S
C2894      C2895   1.417       .  A
C2895      C2896   1.400       .  A
C2895      S2899   1.802       .  S
C2896      H2900   1.084       .  S
S2897      H2902   1.407       .  S
S2899      H2903   1.408       .  S
C2905      C2906   1.402       .  A
C2905      C2910   1.399       .  A
C2905      H2915   1.084       .  S
C2906      C2911   1.479       .  S
C2906      C2907   1.411       .  A
C2907      C2908   1.398       .  A
C2907      S2912   1.804       .  S
C2908      C2909   1.404       .  A
C2908      H2913   1.084       .  S
C2909      C2910   1.414       .  A
C2910      S2914   1.802       .  S
C2911      C2916   1.407       .  A
C2911      C2920   1.400       .  A
S2912      H2928   1.406       .  S
S2914      H2925   1.407       .  S
C2916      C2917   1.402       .  A
C2916      S2921   1.807       .  S
C2917      C2918   1.409       .  A
C2917      H2922   1.082       .  S
C2918      C2919   1.418       .  A
C2919      C2920   1.398       .  A
C2919      S2923   1.799       .  S
C2920      H2924   1.084       .  S
S2921      H2926   1.407       .  S
S2923      H2927   1.407       .  S
C2929      C2930   1.402       .  A
C2929      C2934   1.398       .  A
C2929      H2939   1.084       .  S
C2930      C2935   1.479   1_455  S
C2930      C2931   1.412       .  A
C2931      C2932   1.400       .  A
C2931      S2936   1.804       .  S
C2932      C2933   1.404       .  A
C2932      H2937   1.084       .  S
C2933      C2934   1.413       .  A
C2934      S2938   1.803       .  S
C2935      C2940   1.407       .  A
C2935      C2944   1.400       .  A
S2936      H2952   1.405   1_455  S
S2938      H2949   1.407       .  S
C2940      C2941   1.402       .  A
C2940      S2945   1.807       .  S
C2941      C2942   1.408       .  A
C2941      H2946   1.082       .  S
C2942      C2943   1.418       .  A
C2943      C2944   1.400       .  A
C2943      S2947   1.802       .  S
C2944      H2948   1.084       .  S
S2945      H2950   1.407       .  S
S2947      H2951   1.408       .  S
C2953      C2954   1.400       .  A
C2953      C2958   1.404       .  A
C2953      H2963   1.083       .  S
C2954      C2959   1.482   1_565  S
C2954      C2955   1.412       .  A
C2955      C2956   1.400       .  A
C2955      S2960   1.805       .  S
C2956      C2957   1.407       .  A
C2956      H2961   1.084       .  S
C2957      C2958   1.418       .  A
C2958      S2962   1.808       .  S
C2959      C2964   1.409       .  A
C2959      C2968   1.402       .  A
S2960      H2976   1.405   1_565  S
S2962      H2973   1.406       .  S
C2964      C2965   1.403       .  A
C2964      S2969   1.807       .  S
C2965      C2966   1.405       .  A
C2965      H2970   1.082       .  S
C2966      C2967   1.415       .  A
C2967      C2968   1.401       .  A
C2967      S2971   1.803       .  S
C2968      H2972   1.084       .  S
S2969      H2974   1.407       .  S
S2971      H2975   1.407       .  S
