geometry optimzed in LAMMPS
_audit_creation_date              2020-11-30 
_audit_creation_method            'lammps2cif' 
_symmetry_space_group_name_H-M    'P1' 
_symmetry_Int_Tables_number       1 
_symmetry_cell_setting            triclinic 
loop_ 
_symmetry_equiv_pos_as_xyz 
  x,y,z 
_cell_length_a                    69.66557689 
_cell_length_b                    69.73568530868052 
_cell_length_c                    42.019332656948194 
_cell_angle_alpha                 89.8120026748475 
_cell_angle_beta                  90.12727620537774 
_cell_angle_gamma                 120.03134672375188 
loop_ 
_atom_site_label 
_atom_site_type_symbol 
_atom_site_fract_x 
_atom_site_fract_y 
_atom_site_fract_z 
_atom_site_charge 
O1          O  0.60332370  0.41480528  0.46796104    -0.87800
C2          C  0.56035821  0.39191219  0.39420675     0.88200
Mg3        Mg  0.59277989  0.40981220  0.51621209     1.58100
O4          O  0.58617952  0.44937565  0.40330590    -0.87500
O5          O  0.62344129  0.44258508  0.43567950    -0.74900
C6          C  0.51986414  0.44474356  0.52165632     0.93300
O7          O  0.55465500  0.37209565  0.46404046    -0.74700
O8          O  0.52543446  0.43189819  0.53515743    -0.82200
Mg9        Mg  0.58813555  0.38636735  0.43800286     1.58000
C10         C  0.54829959  0.48008064  0.39833107     0.93200
O11         O  0.62071331  0.39786504  0.41310447    -0.80400
H12         H  0.61364102  0.47914100  0.40322073    -0.05800
C13         C  0.52471686  0.41509806  0.44440141     0.88100
O14         O  0.59860063  0.44560497  0.51704723    -0.75000
O15         O  0.57898036  0.40356718  0.40577226    -0.87700
O16         O  0.55235930  0.46691546  0.38261629    -0.80500
C17         C  0.57502738  0.43125232  0.32268794     0.93300
C18         C  0.63240049  0.40898207  0.38956912     0.93200
Mg19       Mg  0.55854557  0.46188456  0.46439438     1.58000
O20         O  0.52724479  0.45316670  0.49426826    -0.80500
O21         O  0.59090518  0.47557854  0.43626295    -0.74700
O22         O  0.58946116  0.42858133  0.33774904    -0.80500
O23         O  0.59720639  0.36699302  0.47057184    -0.82200
O24         O  0.56012783  0.42057269  0.56588713    -0.80600
C25         C  0.59744035  0.46847712  0.41338005     0.87600
O26         O  0.56902091  0.44465999  0.49705129    -0.87700
O27         O  0.54240297  0.43172442  0.43704333    -0.87800
O28         O  0.52200310  0.40580597  0.47136919    -0.74900
Mg29       Mg  0.60498852  0.43466471  0.38782783     1.58000
O30         O  0.56169960  0.43584714  0.33687013    -0.82200
H31         H  0.63293419  0.44006399  0.48044431    -0.06000
O32         O  0.55929794  0.39698554  0.49968990    -0.87500
H33         H  0.53098634  0.36807406  0.49581367    -0.05800
H34         H  0.59497556  0.47268322  0.51299811    -0.06000
C35         C  0.54770005  0.37861956  0.48725636     0.87600
C36         C  0.62045324  0.43251936  0.46209811     0.88200
C37         C  0.58766453  0.45505012  0.50921863     0.88200
H38         H  0.51146089  0.40790827  0.42710448    -0.05900
O39         O  0.54753535  0.39949156  0.38859281    -0.75000
Mg40       Mg  0.54296833  0.41420369  0.51695580     1.58000
H41         H  0.55442099  0.37451759  0.39027743    -0.06000
C42         C  0.59458066  0.36299385  0.50015083     0.93200
O43         O  0.58267483  0.40665635  0.56802041    -0.82200
C44         C  0.57212448  0.41485359  0.58167750     0.93300
O45         O  0.62694862  0.42062976  0.37247629    -0.82200
Mg46       Mg  0.55206459  0.43418146  0.38835303     1.58200
O47         O  0.58992120  0.37453431  0.51894300    -0.80500
O48         O  0.54812999  0.48015622  0.42870671    -0.82200
O49         O  0.57811396  0.39359067  0.93614774    -0.87800
C50         C  0.60349690  0.43633998  0.01014668     0.88200
Mg51       Mg  0.58170113  0.40391399  0.88754224     1.58100
O52         O  0.54584370  0.41070379  0.00231356    -0.87500
O53         O  0.55167396  0.37319161  0.96995988    -0.74900
C54         C  0.55092443  0.48019001  0.88731421     0.93300
O55         O  0.62107000  0.44162033  0.93859387    -0.74700
O56         O  0.56260064  0.47395865  0.87200831    -0.82200
Mg57       Mg  0.60739119  0.40813623  0.96461285     1.58000
C58         C  0.51539924  0.44811469  0.01029440     0.93200
O59         O  0.59663096  0.37508928  0.99012088    -0.80400
H60         H  0.51597019  0.38336428  0.00133017    -0.05800
C61         C  0.58036814  0.47223701  0.96169014     0.88100
O62         O  0.54630889  0.39892096  0.88865533    -0.75000
O63         O  0.59156132  0.41774358  0.99870488    -0.87700
O64         O  0.52793650  0.44265898  0.02495899    -0.80500
C65         C  0.56451413  0.42144199  0.08321836     0.93300
C66         C  0.58648614  0.36440709  0.01505615     0.93200
Mg67       Mg  0.53321768  0.44002136  0.94273053     1.58000
O68         O  0.54267685  0.47219901  0.91456533    -0.80500
O69         O  0.51957787  0.40706100  0.96982787    -0.74700
O70         O  0.56759985  0.40742914  0.06788812    -0.80500
O71         O  0.62550134  0.39918877  0.92967257    -0.82200
O72         O  0.57291202  0.43897711  0.83724309    -0.80600
C73         C  0.52670993  0.39980493  0.99195884     0.87600
O74         O  0.54888261  0.42932493  0.90792789    -0.87700
O75         O  0.56359290  0.45473175  0.96922314    -0.87800
O76         O  0.58891983  0.47510791  0.93416936    -0.74900
Mg77       Mg  0.56075538  0.39196243  0.01750698     1.58000
O78         O  0.55964806  0.43460044  0.06909862    -0.82200
H79         H  0.55284280  0.36375111  0.92471369    -0.06000
O80         O  0.59594129  0.43762819  0.90342810    -0.87500
H81         H  0.62513643  0.46560807  0.90728935    -0.05800
H82         H  0.52003359  0.40377042  0.89345482    -0.06000
C83         C  0.61448365  0.44886713  0.91567548     0.87600
C84         C  0.56079616  0.37630457  0.94281103     0.88200
C85         C  0.53770117  0.41059540  0.89640903     0.88200
H86         H  0.58827549  0.48522308  0.97920675    -0.05900
O87         O  0.59603796  0.44914898  0.01656498    -0.75000
Mg88       Mg  0.57949525  0.45502935  0.88766133     1.58000
H89         H  0.62097316  0.44223067  0.01340287    -0.06000
C90         C  0.62881463  0.40218908  0.89994099     0.93200
O91         O  0.58347471  0.41365138  0.83586709    -0.82200
C92         C  0.57727165  0.42583479  0.82182868     0.93300
O93         O  0.57544983  0.37054065  0.03217022    -0.82200
Mg94       Mg  0.56120496  0.44449545  0.01784157     1.58200
O95         O  0.61649388  0.40650460  0.88222815    -0.80500
O96         O  0.51633585  0.45067687  0.98014361    -0.82200
O97         O  0.39730534  0.58223369  0.21713376    -0.87800
C98         C  0.43814816  0.60423627  0.14033826     0.88200
Mg99       Mg  0.40835760  0.58827054  0.26531363     1.58100
O100        O  0.41396028  0.54739644  0.15367292    -0.87500
O101        O  0.37674944  0.55380283  0.18626363    -0.74900
C102        C  0.48426028  0.55747621  0.27171231     0.93300
O103        O  0.44508117  0.62555925  0.21013289    -0.74700
O104        O  0.47874026  0.57057582  0.28425952    -0.82200
Mg105      Mg  0.41101822  0.61002810  0.18557986     1.58000
C106        C  0.45210702  0.51733707  0.15088401     0.93200
O107        O  0.37759180  0.59705105  0.16199126    -0.80400
H108        H  0.38714824  0.51727127  0.15699974    -0.05800
C109        C  0.47639347  0.58466431  0.19186912     0.88100
O110        O  0.40400375  0.55318623  0.26783500    -0.75000
O111        O  0.41999609  0.59261290  0.15331047    -0.87700
O112        O  0.44692217  0.52941919  0.13429278    -0.80500
C113        C  0.42253128  0.56271296  0.07126664     0.93300
C114        C  0.36536898  0.58530987  0.13923675     0.93200
Mg115      Mg  0.44454287  0.53825761  0.21550230     1.58000
O116        O  0.47658000  0.54842811  0.24473800    -0.80500
O117        O  0.41137862  0.52297930  0.18879625    -0.74700
O118        O  0.40827096  0.56546295  0.08663186    -0.80500
O119        O  0.40240325  0.63002091  0.21801885    -0.82200
O120        O  0.44366820  0.58108308  0.31491820    -0.80600
C121        C  0.40359466  0.52874181  0.16569864     0.87600
O122        O  0.43400840  0.55545710  0.24747055    -0.87700
O123        O  0.45895853  0.56738365  0.18569158    -0.87800
O124        O  0.47945503  0.59440772  0.21849483    -0.74900
Mg125      Mg  0.39396317  0.56075983  0.13758062     1.58000
O126        O  0.43647667  0.55884457  0.08536207    -0.82200
H127        H  0.36820932  0.55690235  0.23126824    -0.06000
O128        O  0.44193061  0.60230892  0.24794939    -0.87500
H129        H  0.46963490  0.63144399  0.24147605    -0.05800
H130        H  0.40939266  0.52716667  0.26524807    -0.06000
C131        C  0.45280037  0.62025488  0.23392683     0.87600
C132        C  0.38022836  0.56427259  0.21232120     0.88200
C133        C  0.41573435  0.54456731  0.26048427     0.88200
H134        H  0.48915311  0.59196439  0.17387077    -0.05900
O135        O  0.45122427  0.59696854  0.13463215    -0.75000
Mg136      Mg  0.45977431  0.58671561  0.26538992     1.58000
H137        H  0.44346256  0.62136677  0.13509096    -0.06000
C138        C  0.40537024  0.63436599  0.24751274     0.93200
O139        O  0.41875122  0.59209263  0.31745195    -0.82200
C140        C  0.43074549  0.58537491  0.33091573     0.93300
O141        O  0.37071959  0.57364257  0.12209531    -0.82200
Mg142      Mg  0.44761759  0.56260265  0.13703308     1.58200
O143        O  0.40994253  0.62280234  0.26652608    -0.80500
O144        O  0.45490522  0.51969725  0.18093458    -0.82200
O145        O  0.39701978  0.58297728  0.71953741    -0.87800
C146        C  0.44004430  0.60840264  0.64558550     0.88200
Mg147      Mg  0.40746136  0.58703084  0.76778945     1.58100
O148        O  0.41528798  0.55080321  0.65220055    -0.87500
O149        O  0.37764805  0.55590202  0.68595337    -0.74900
C150        C  0.48237667  0.55578953  0.77066080     0.93300
O151        O  0.44511232  0.62706535  0.71683259    -0.74700
O152        O  0.47624870  0.56812669  0.78395801    -0.82200
Mg153      Mg  0.41158311  0.61237202  0.69102169     1.58000
C154        C  0.45376701  0.52080921  0.64579939     0.93200
O155        O  0.37889317  0.60066141  0.66640615    -0.80400
H156        H  0.38822201  0.52073493  0.65217284    -0.05800
C157        C  0.47654667  0.58581869  0.69337069     0.88100
O158        O  0.40276068  0.55171063  0.76725152    -0.75000
O159        O  0.42153244  0.59639734  0.65732126    -0.87700
O160        O  0.44942350  0.53398785  0.63039873    -0.80500
C161        C  0.42561810  0.57015644  0.57150650     0.93300
C162        C  0.36740389  0.59006713  0.64246678     0.93200
Mg163      Mg  0.44393895  0.53837183  0.71275824     1.58000
O164        O  0.47558280  0.54749232  0.74302405    -0.80500
O165        O  0.41142449  0.52451617  0.68468148    -0.74700
O166        O  0.41170821  0.57323575  0.58731758    -0.80500
O167        O  0.40181542  0.63053834  0.72549196    -0.82200
O168        O  0.44132740  0.57728895  0.81581528    -0.80600
C169        C  0.40443716  0.53158198  0.66215723     0.87600
O170        O  0.43278844  0.55443577  0.74619585    -0.87700
O171        O  0.45933428  0.56879524  0.68562208    -0.87800
O172        O  0.47882564  0.59453858  0.72065088    -0.74900
Mg173      Mg  0.39603812  0.56549462  0.63803019     1.58000
O174        O  0.43876638  0.56494388  0.58509478    -0.82200
H175        H  0.36785875  0.55667632  0.73112649    -0.06000
O176        O  0.44092579  0.60135245  0.75079150    -0.87500
H177        H  0.46871606  0.63085460  0.74868401    -0.05800
H178        H  0.40777878  0.52558661  0.76186022    -0.06000
C179        C  0.45217851  0.62019944  0.73957059     0.87600
C180        C  0.38028655  0.56510565  0.71295568     0.88200
C181        C  0.41434968  0.54318650  0.75861674     0.88200
H182        H  0.48976213  0.59384797  0.67616086    -0.05900
O183        O  0.45281859  0.60101228  0.63844253    -0.75000
Mg184      Mg  0.45812430  0.58494561  0.76665669     1.58000
H185        H  0.44585424  0.62585781  0.64247261    -0.06000
C186        C  0.40478422  0.63354382  0.75527873     0.93200
O187        O  0.41768763  0.58976672  0.81933554    -0.82200
C188        C  0.42894473  0.58206156  0.83223960     0.93300
O189        O  0.37323592  0.57913880  0.62455347    -0.82200
Mg190      Mg  0.44918874  0.56656818  0.63680904     1.58200
O191        O  0.40953522  0.62137252  0.77253768    -0.80500
O192        O  0.45460460  0.52090828  0.67618615    -0.82200
O193        O  0.18769248  0.60539197  0.05445303    -0.87800
C194        C  0.16989616  0.56289360  0.98075969     0.88200
Mg195      Mg  0.18159694  0.59438349  0.10286974     1.58100
O196        O  0.13706249  0.58751280  0.98783029    -0.87500
O197        O  0.18000121  0.62509748  0.02125336    -0.74900
C198        C  0.07457261  0.52042213  0.10720198     0.93300
O199        O  0.18344924  0.55757113  0.05075889    -0.74700
O200        O  0.09310675  0.52561773  0.11994293    -0.82200
Mg201      Mg  0.20258417  0.59138648  0.02530253     1.58000
C202        C  0.06847276  0.54923342  0.98217972     0.93200
O203        O  0.22396646  0.62446019  0.00054109    -0.80400
H204        H  0.13443192  0.61475391  0.98840303    -0.05800
C205        C  0.10979542  0.52595196  0.02928650     0.88100
O206        O  0.15127298  0.59949676  0.10343023    -0.75000
O207        O  0.17668028  0.58158352  0.99189441    -0.87700
O208        O  0.08578920  0.55308732  0.96672582    -0.80500
C209        C  0.14548010  0.57625278  0.90755514     0.93300
C210        C  0.22443532  0.63600352  0.97676484     0.93200
Mg211      Mg  0.09620996  0.55922513  0.04930411     1.58000
O212        O  0.07323271  0.52795276  0.07997347    -0.80500
O213        O  0.11524989  0.59162640  0.02110671    -0.74700
O214        O  0.16266608  0.59054913  0.92274048    -0.80500
O215        O  0.23035560  0.60090424  0.05944597    -0.82200
O216        O  0.13846181  0.55890308  0.15220026    -0.80600
C217        C  0.12898679  0.59848254  0.99823910     0.87600
O218        O  0.12338632  0.56959883  0.08299616    -0.87700
O219        O  0.11086516  0.54362319  0.02198291    -0.87800
O220        O  0.11618867  0.52313740  0.05630962    -0.74900
Mg221      Mg  0.17090461  0.60688461  0.97312849     1.58000
O222        O  0.12714464  0.56350838  0.92140749    -0.82200
H223        H  0.19069046  0.63447942  0.06654539    -0.06000
O224        O  0.16189116  0.56089383  0.08563335    -0.87500
H225        H  0.16348434  0.53315319  0.08149827    -0.05800
H226        H  0.12012015  0.59474191  0.09929211    -0.06000
C227        C  0.16941182  0.54991311  0.07334055     0.87600
C228        C  0.18658678  0.62219467  0.04818878     0.88200
C229        C  0.13096339  0.58802884  0.09549953     0.88200
H230        H  0.10390528  0.51281096  0.01189769    -0.05900
O231        O  0.14954846  0.54996472  0.97463963    -0.75000
Mg232      Mg  0.12824586  0.54351480  0.10228500     1.58000
H233        H  0.18147724  0.55702466  0.97749388    -0.06000
C234        C  0.23048563  0.59682024  0.08882835     0.93200
O235        O  0.17437203  0.58406319  0.15470408    -0.82200
C236        C  0.15582433  0.57160958  0.16811775     0.93300
O237        O  0.20735405  0.63031149  0.95944176    -0.82200
Mg238      Mg  0.11867848  0.55353610  0.97313280     1.58200
O239        O  0.21365072  0.59148664  0.10655370    -0.80500
O240        O  0.06800806  0.54898668  0.01259275    -0.82200
O241        O  0.18466597  0.59950390  0.55553432    -0.87800
C242        C  0.16649372  0.55889562  0.47904831     0.88200
Mg243      Mg  0.17877625  0.58796523  0.60351918     1.58100
O244        O  0.13479116  0.58443485  0.48933369    -0.87500
O245        O  0.17803978  0.62065074  0.52382038    -0.74900
C246        C  0.07135862  0.51521428  0.60594861     0.93300
O247        O  0.17914120  0.55124300  0.54909554    -0.74700
O248        O  0.08960247  0.51985516  0.61923305    -0.82200
Mg249      Mg  0.19879610  0.58544134  0.52502202     1.58000
C250        C  0.06657060  0.54752853  0.48349143     0.93200
O251        O  0.22049768  0.61895742  0.50209420    -0.80400
H252        H  0.13254855  0.61186858  0.49138454    -0.05800
C253        C  0.10711614  0.52202810  0.52803401     0.88100
O254        O  0.14887591  0.59371748  0.60530981    -0.75000
O255        O  0.17317207  0.57708831  0.49179488    -0.87700
O256        O  0.08393228  0.55200663  0.46771918    -0.80500
C257        C  0.14323715  0.57541140  0.40778796     0.93300
C258        C  0.22153007  0.63116116  0.47890123     0.93200
Mg259      Mg  0.09400685  0.55524274  0.55004726     1.58000
O260        O  0.07080761  0.52367119  0.57917867    -0.80500
O261        O  0.11320817  0.58821671  0.52336695    -0.74700
O262        O  0.16000197  0.58914263  0.42410061    -0.80500
O263        O  0.22635520  0.59344295  0.55856218    -0.82200
O264        O  0.13541923  0.55310894  0.65276138    -0.80600
C265        C  0.12692913  0.59538463  0.50050791     0.87600
O266        O  0.12093050  0.56458663  0.58364299    -0.87700
O267        O  0.10827942  0.53986113  0.52139210    -0.87800
O268        O  0.11308487  0.51858460  0.55505052    -0.74900
Mg269      Mg  0.16850153  0.60352946  0.47496327     1.58000
O270        O  0.12476872  0.56203441  0.42094911    -0.82200
H271        H  0.18879749  0.62874501  0.56934619    -0.06000
O272        O  0.15866839  0.55480790  0.58565014    -0.87500
H273        H  0.15929011  0.52667685  0.57969795    -0.05800
H274        H  0.11792791  0.58953602  0.60141765    -0.06000
C275        C  0.16554179  0.54362828  0.57220502     0.87600
C276        C  0.18430243  0.61681552  0.55036557     0.88200
C277        C  0.12861611  0.58271599  0.59704012     0.88200
H278        H  0.10139830  0.50923221  0.51012007    -0.05900
O279        O  0.14619554  0.54626327  0.47244895    -0.75000
Mg280      Mg  0.12502410  0.53791002  0.60212110     1.58000
H281        H  0.17808602  0.55315718  0.47480452    -0.06000
C282        C  0.22716353  0.58999019  0.58800030     0.93200
O283        O  0.17171757  0.57664218  0.65464824    -0.82200
C284        C  0.15318875  0.56503801  0.66853789     0.93300
O285        O  0.20481350  0.62588707  0.46104149    -0.82200
Mg286      Mg  0.11602919  0.55089558  0.47267025     1.58200
O287        O  0.21072698  0.58503048  0.60634758    -0.80500
O288        O  0.06599874  0.54589396  0.51379800    -0.82200
O289        O  0.81389332  0.39743894  0.30422022    -0.87800
C290        C  0.83239106  0.43930527  0.22897986     0.88200
Mg291      Mg  0.81910882  0.40803022  0.35254487     1.58100
O292        O  0.86520649  0.41487244  0.23977083    -0.87500
O293        O  0.82171655  0.37733630  0.27243859    -0.74900
C294        C  0.92515967  0.48235555  0.35936933     0.93300
O295        O  0.81860585  0.44533420  0.29878808    -0.74700
O296        O  0.90646893  0.47618901  0.37209098    -0.82200
Mg297      Mg  0.79964651  0.41151757  0.27372402     1.58000
C298        C  0.93376406  0.45384217  0.23593062     0.93200
O299        O  0.77837882  0.37827892  0.24945120    -0.80400
H300        H  0.86844528  0.38798107  0.24132101    -0.05800
C301        C  0.89086260  0.47652144  0.28023522     0.88100
O302        O  0.84947759  0.40293759  0.35431675    -0.75000
O303        O  0.82581488  0.42090476  0.24113767    -0.87700
O304        O  0.91631757  0.44895054  0.21994907    -0.80500
C305        C  0.85762504  0.42483774  0.15790811     0.93300
C306        C  0.77818376  0.36670200  0.22599228     0.93200
Mg307      Mg  0.90517408  0.44407474  0.30157910     1.58000
O308        O  0.92703075  0.47580483  0.33176756    -0.80500
O309        O  0.88717130  0.41147052  0.27378520    -0.74700
O310        O  0.84065158  0.41059307  0.17348154    -0.80500
O311        O  0.77171524  0.40258491  0.30685318    -0.82200
O312        O  0.86147017  0.44112804  0.40235114    -0.80600
C313        C  0.87351560  0.40422860  0.25079846     0.87600
O314        O  0.87732480  0.43290520  0.33391628    -0.87700
O315        O  0.89037410  0.45909379  0.27307702    -0.87800
O316        O  0.88427113  0.47911515  0.30723690    -0.74900
Mg317      Mg  0.83164906  0.39531136  0.22416643     1.58000
O318        O  0.87570131  0.43829858  0.17190531    -0.82200
H319        H  0.81021607  0.36823117  0.31747061    -0.06000
O320        O  0.83881979  0.44143244  0.33560890    -0.87500
H321        H  0.83781794  0.46943708  0.33028079    -0.05800
H322        H  0.88073640  0.40788545  0.35071692    -0.06000
C323        C  0.83188158  0.45266252  0.32230519     0.87600
C324        C  0.81478037  0.38045678  0.29880459     0.88200
C325        C  0.86980804  0.41447954  0.34653874     0.88200
H326        H  0.89656187  0.48969221  0.26282749    -0.05900
O327        O  0.85273631  0.45237924  0.22319925    -0.75000
Mg328      Mg  0.87193573  0.45832890  0.35326288     1.58000
H329        H  0.82062444  0.44481800  0.22455493    -0.06000
C330        C  0.77104601  0.40616943  0.33624762     0.93200
O331        O  0.82521511  0.41784966  0.40451714    -0.82200
C332        C  0.84395352  0.42861620  0.41817076     0.93300
O333        O  0.79551307  0.37246969  0.20930556    -0.82200
Mg334      Mg  0.88348967  0.44875126  0.22406028     1.58200
O335        O  0.78739844  0.41105680  0.35474433    -0.80500
O336        O  0.93411068  0.45501249  0.26627385    -0.82200
O337        O  0.81430843  0.39908750  0.80387615    -0.87800
C338        C  0.83253790  0.43921278  0.72617584     0.88200
Mg339      Mg  0.81949894  0.41046624  0.85207984     1.58100
O340        O  0.86488396  0.41474384  0.73946043    -0.87500
O341        O  0.82158639  0.37803750  0.77328651    -0.74900
C342        C  0.92671308  0.48572651  0.85596339     0.93300
O343        O  0.81955706  0.44696442  0.79609172    -0.74700
O344        O  0.90829744  0.48039637  0.86924125    -0.82200
Mg345      Mg  0.80042745  0.41284184  0.77196565     1.58000
C346        C  0.93259313  0.45190889  0.73533313     0.93200
O347        O  0.77878660  0.37952049  0.74847413    -0.80400
H348        H  0.86763916  0.38768554  0.74378895    -0.05800
C349        C  0.89072087  0.47735510  0.77711516     0.88100
O350        O  0.85003953  0.40576390  0.85480602    -0.75000
O351        O  0.82625332  0.42120059  0.73942972    -0.87700
O352        O  0.91539747  0.44712246  0.71885457    -0.80500
C353        C  0.85729063  0.42267992  0.65712328     0.93300
C354        C  0.77816496  0.36722451  0.72578479     0.93200
Mg355      Mg  0.90494443  0.44537050  0.80088239     1.58000
O356        O  0.92763420  0.47778735  0.82899683    -0.80500
O357        O  0.88634149  0.41201813  0.77517302    -0.74700
O358        O  0.84058218  0.40842233  0.67302566    -0.80500
O359        O  0.77262415  0.40476181  0.80420761    -0.82200
O360        O  0.86238763  0.44615248  0.90191545    -0.80600
C361        C  0.87289767  0.40427081  0.75199626     0.87600
O362        O  0.87779194  0.43554308  0.83389565    -0.87700
O363        O  0.89023012  0.45977169  0.77099602    -0.87800
O364        O  0.88457022  0.48075163  0.80397364    -0.74900
Mg365      Mg  0.83151388  0.39479642  0.72422393     1.58000
O366        O  0.87517748  0.43706470  0.67059645    -0.82200
H367        H  0.81037367  0.37004984  0.81861826    -0.06000
O368        O  0.83928783  0.44396242  0.83463882    -0.87500
H369        H  0.83829328  0.47175871  0.82691429    -0.05800
H370        H  0.88144745  0.41104589  0.85220429    -0.06000
C371        C  0.83247244  0.45481176  0.81993992     0.87600
C372        C  0.81494250  0.38187507  0.79938113     0.88200
C373        C  0.87039895  0.41738846  0.84729035     0.88200
H374        H  0.89607253  0.48998800  0.75891124    -0.05900
O375        O  0.85283328  0.45240761  0.72031634    -0.75000
Mg376      Mg  0.87285291  0.46166606  0.85151767     1.58000
H377        H  0.82056707  0.44435521  0.72102669    -0.06000
C378        C  0.77088828  0.40792705  0.83341520     0.93200
O379        O  0.82636320  0.42108493  0.90408572    -0.82200
C380        C  0.84499726  0.43312673  0.91771625     0.93300
O381        O  0.79541319  0.37181678  0.70962520    -0.82200
Mg382      Mg  0.88326550  0.44833817  0.72228690     1.58200
O383        O  0.78671208  0.41259027  0.85307573    -0.80500
O384        O  0.93311661  0.45467673  0.76539367    -0.82200
O385        O  0.60287382  0.18565551  0.11572847    -0.87800
C386        C  0.56335166  0.16854118  0.19326687     0.88200
Mg387      Mg  0.59053267  0.17972947  0.06818603     1.58100
O388        O  0.58657494  0.13489255  0.18113568    -0.87500
O389        O  0.62363994  0.17779007  0.14632633    -0.74900
C390        C  0.51561298  0.07283454  0.06584136     0.93300
O391        O  0.55527134  0.18102655  0.12389714    -0.74700
O392        O  0.52108474  0.09125234  0.05248608    -0.82200
Mg393      Mg  0.58990176  0.20037046  0.14704566     1.58000
C394        C  0.54678244  0.06655500  0.18902132     0.93200
O395        O  0.62397848  0.22155050  0.16961360    -0.80400
H396        H  0.61308715  0.13099998  0.17944967    -0.05800
C397        C  0.52364484  0.10887065  0.14386656     0.88100
O398        O  0.59535863  0.14910915  0.06654620    -0.75000
O399        O  0.58137513  0.17466574  0.18020491    -0.87700
O400        O  0.55226509  0.08441743  0.20394952    -0.80500
C401        C  0.57951726  0.14318152  0.26288289     0.93300
C402        C  0.63612949  0.22189867  0.19254671     0.93200
Mg403      Mg  0.55555397  0.09394696  0.12191218     1.58000
O404        O  0.52352046  0.07185862  0.09290427    -0.80500
O405        O  0.58878917  0.11192330  0.14815609    -0.74700
O406        O  0.59357787  0.16002079  0.24695456    -0.80500
O407        O  0.59769489  0.22815671  0.11347859    -0.82200
O408        O  0.55611945  0.13639483  0.01976011    -0.80600
C409        C  0.59671767  0.12603870  0.17040261     0.87600
O410        O  0.56599269  0.12130581  0.08843766    -0.87700
O411        O  0.54130954  0.10955334  0.15026756    -0.87800
O412        O  0.52029849  0.11495994  0.11687069    -0.74900
Mg413      Mg  0.60714300  0.16853033  0.19560219     1.58000
O414        O  0.56506885  0.12539976  0.24944600    -0.82200
H415        H  0.63152670  0.18874908  0.10083493    -0.06000
O416        O  0.55762943  0.16007671  0.08689935    -0.87500
H417        H  0.52989163  0.16125855  0.09440399    -0.05800
H418        H  0.59086028  0.11805638  0.07074677    -0.06000
C419        C  0.54696338  0.16727600  0.10107070     0.87600
C420        C  0.61987093  0.18454440  0.12017258     0.88200
C421        C  0.58418176  0.12887203  0.07506987     0.88200
H422        H  0.51093470  0.10344940  0.16192345    -0.05900
O423        O  0.55002834  0.14831746  0.19937223    -0.75000
Mg424      Mg  0.54002777  0.12651659  0.06997841     1.58000
H425        H  0.55831024  0.18060347  0.19806044    -0.06000
C426        C  0.59288277  0.22846568  0.08443861     0.93200
O427        O  0.57875499  0.17279521  0.01691714    -0.82200
C428        C  0.56787563  0.15398009  0.00354739     0.93300
O429        O  0.63075348  0.20474842  0.20953278    -0.82200
Mg430      Mg  0.55303365  0.11726042  0.19856865     1.58200
O431        O  0.58770420  0.21189068  0.06626122    -0.80500
O432        O  0.54506265  0.06549072  0.15868544    -0.82200
O433        O  0.60765783  0.18585084  0.61558658    -0.87800
C434        C  0.56383663  0.16864782  0.68852812     0.88200
Mg435      Mg  0.59814785  0.17937629  0.56669036     1.58100
O436        O  0.58851642  0.13569003  0.68324948    -0.87500
O437        O  0.62690229  0.17874159  0.65035457    -0.74900
C438        C  0.52227641  0.07254397  0.56410478     0.93300
O439        O  0.55947822  0.18112339  0.61633942    -0.74700
O440        O  0.52847212  0.09083097  0.54988334    -0.82200
Mg441      Mg  0.59252593  0.20040890  0.64320426     1.58000
C442        C  0.54997843  0.06762921  0.68974765     0.93200
O443        O  0.62462643  0.22213193  0.66963028    -0.80400
H444        H  0.61561759  0.13275407  0.68350060    -0.05800
C445        C  0.52757895  0.10927410  0.63978301     0.88100
O446        O  0.60254740  0.14866190  0.56873316    -0.75000
O447        O  0.58246398  0.17489579  0.67747914    -0.87700
O448        O  0.55379707  0.08508949  0.70461459    -0.80500
C449        C  0.57682423  0.14438182  0.76348212     0.93300
C450        C  0.63563443  0.22308269  0.69433004     0.93200
Mg451      Mg  0.56034560  0.09445481  0.62233319     1.58000
O452        O  0.52884542  0.07155048  0.59216363    -0.80500
O453        O  0.59258608  0.11341466  0.65085590    -0.74700
O454        O  0.59166881  0.16108007  0.74805154    -0.80500
O455        O  0.60226254  0.22783648  0.60819172    -0.82200
O456        O  0.56359646  0.13569870  0.51778972    -0.80600
C457        C  0.59942229  0.12737304  0.67340524     0.87600
O458        O  0.57176846  0.12123054  0.58807210    -0.87700
O459        O  0.54486413  0.10983936  0.64821665    -0.87800
O460        O  0.52540418  0.11530199  0.61208223    -0.74900
Mg461      Mg  0.60780228  0.16953413  0.69772700     1.52000
O462        O  0.56327165  0.12638977  0.74951043    -0.82200
H463        H  0.63726038  0.18937156  0.60530340    -0.06000
O464        O  0.56399206  0.16009396  0.58198294    -0.87500
H465        H  0.53610824  0.16159629  0.58414491    -0.05800
H466        H  0.59707357  0.11735718  0.57422694    -0.06000
C467        C  0.55263207  0.16748536  0.59333762     0.87600
C468        C  0.62449973  0.18512860  0.62300065     0.88200
C469        C  0.59052827  0.12844606  0.57676125     0.88200
H470        H  0.51418779  0.10406834  0.65668280    -0.05900
O471        O  0.55056793  0.14846371  0.69497577    -0.75000
Mg472      Mg  0.54658631  0.12628074  0.56656100     1.58000
H473        H  0.55831825  0.18053401  0.69132635    -0.06000
C474        C  0.60040598  0.22863878  0.57825758     0.93200
O475        O  0.58934457  0.17140961  0.51453740    -0.82200
C476        C  0.57706356  0.15262899  0.50165632     0.93300
O477        O  0.63015278  0.20603098  0.71162335    -0.82200
Mg478      Mg  0.55413250  0.11771904  0.69734757     1.58200
O479        O  0.59651066  0.21215654  0.56056287    -0.80500
O480        O  0.54956991  0.06667235  0.65941095    -0.82200
O481        O  0.39522314  0.81168381  0.36828223    -0.87800
C482        C  0.43826317  0.82913064  0.44222660     0.88200
Mg483      Mg  0.40551803  0.81858387  0.31985061     1.58100
O484        O  0.41286795  0.86130139  0.43572382    -0.87500
O485        O  0.37535702  0.81834195  0.40233174    -0.74900
C486        C  0.48083783  0.92550638  0.31787702     0.93300
O487        O  0.44319736  0.81593843  0.37049873    -0.74700
O488        O  0.47542904  0.90708442  0.30477129    -0.82200
Mg489      Mg  0.40970008  0.79660351  0.39630295     1.58000
C490        C  0.45024784  0.92994581  0.44227150     0.93200
O491        O  0.37680480  0.77517466  0.42112249    -0.80400
H492        H  0.38553693  0.86383243  0.43467463    -0.05800
C493        C  0.47448412  0.88847382  0.39510287     0.88100
O494        O  0.40077143  0.84903567  0.32134063    -0.75000
O495        O  0.41962677  0.82226268  0.43062142    -0.87700
O496        O  0.44568494  0.91242734  0.45788656    -0.80500
C497        C  0.42366695  0.85234525  0.51648059     0.93300
C498        C  0.36550410  0.77410759  0.44545053     0.93200
Mg499      Mg  0.44180434  0.90312932  0.37528515     1.58000
O500        O  0.47336574  0.92652043  0.34523918    -0.80500
O501        O  0.40913655  0.88371311  0.40296995    -0.74700
O502        O  0.41006581  0.83514532  0.50074937    -0.80500
O503        O  0.40007613  0.76907270  0.36089503    -0.82200
O504        O  0.44050099  0.86255383  0.27157159    -0.80600
C505        C  0.40194623  0.86947131  0.42526469     0.87600
O506        O  0.43120231  0.87646068  0.34139368    -0.87700
O507        O  0.45719781  0.88821511  0.40259259    -0.87800
O508        O  0.47702779  0.88229201  0.36777634    -0.74900
Mg509      Mg  0.39399838  0.82727228  0.45016232     1.58000
O510        O  0.43610914  0.87090016  0.50291470    -0.82200
H511        H  0.36570339  0.80808907  0.35698004    -0.06000
O512        O  0.43926943  0.83770968  0.33652796    -0.87500
H513        H  0.46704906  0.83600626  0.33918228    -0.05800
H514        H  0.40598089  0.88022811  0.32659938    -0.06000
C515        C  0.45042580  0.83004218  0.34795869     0.87600
C516        C  0.37821766  0.81224787  0.37509000     0.88200
C517        C  0.41258869  0.86921295  0.32949861     0.88200
H518        H  0.48753492  0.89349287  0.41257958    -0.05900
O519        O  0.45074779  0.84936133  0.44948597    -0.75000
Mg520      Mg  0.45683561  0.87158631  0.32123182     1.58000
H521        H  0.44441475  0.81775189  0.44521411    -0.06000
C522        C  0.40303989  0.76925320  0.33105020     0.93200
O523        O  0.41504860  0.82684255  0.26800442    -0.82200
C524        C  0.42721937  0.84569718  0.25517487     0.93300
O525        O  0.37162620  0.79072980  0.46377037    -0.82200
Mg526      Mg  0.44660891  0.87997878  0.45134045     1.58200
O527        O  0.40774126  0.78630385  0.31406850    -0.80500
O528        O  0.45194381  0.93069550  0.41198947    -0.82200
O529        O  0.40140305  0.81556634  0.86900994    -0.87800
C530        C  0.44127910  0.83390978  0.94656909     0.88200
Mg531      Mg  0.41319910  0.82080679  0.82134501     1.58100
O532        O  0.41710093  0.86647033  0.93249855    -0.87500
O533        O  0.38031649  0.82323449  0.89888807    -0.74900
C534        C  0.48928736  0.92764502  0.81720888     0.93300
O535        O  0.44901542  0.81984736  0.87721605    -0.74700
O536        O  0.48389434  0.90917199  0.80418326    -0.82200
Mg537      Mg  0.41459037  0.80110343  0.90086708     1.58000
C538        C  0.45464419  0.93462965  0.93641912     0.93200
O539        O  0.38080359  0.78015564  0.92390541    -0.80400
H540        H  0.39018529  0.86951351  0.92808228    -0.05800
C541        C  0.48001709  0.89206178  0.89639815     0.88100
O542        O  0.40887598  0.85151414  0.81806839    -0.75000
O543        O  0.42323895  0.82731982  0.93315767    -0.87700
O544        O  0.44941688  0.91739933  0.95316618    -0.80500
C545        C  0.42406864  0.85865129  0.01535285     0.93300
C546        C  0.36839409  0.77970979  0.94637442     0.93200
Mg547      Mg  0.44838873  0.90651242  0.87158723     1.58000
O548        O  0.48101191  0.92870928  0.84381206    -0.80500
O549        O  0.41479535  0.88824992  0.89696770    -0.74700
O550        O  0.41061266  0.84179472  0.99904415    -0.80500
O551        O  0.40622666  0.77283327  0.86822187    -0.82200
O552        O  0.44925274  0.86321301  0.77119447    -0.80600
C553        C  0.40679165  0.87466238  0.91997051     0.87600
O554        O  0.43860747  0.87916196  0.83908290    -0.87700
O555        O  0.46251086  0.89187593  0.90217916    -0.87800
O556        O  0.48341666  0.88560388  0.86978552    -0.74900
Mg557      Mg  0.39697472  0.83302065  0.94791930     1.58000
O558        O  0.43795375  0.87692672  0.00214624    -0.82200
H559        H  0.37255900  0.81184655  0.85364640    -0.06000
O560        O  0.44656245  0.84027091  0.83926558    -0.87500
H561        H  0.47415131  0.83880344  0.84686506    -0.05800
H562        H  0.41431424  0.88295260  0.82026023    -0.06000
C563        C  0.45718370  0.83309917  0.85374966     0.87600
C564        C  0.38423306  0.81638281  0.87306764     0.88200
C565        C  0.42054138  0.87184952  0.82547623     0.88200
H566        H  0.49257227  0.89740164  0.91470624    -0.05900
O567        O  0.45408449  0.85421906  0.95290775    -0.75000
Mg568      Mg  0.46461373  0.87379680  0.82201320     1.58000
H569        H  0.44672384  0.82218568  0.95176291    -0.06000
C570        C  0.40944122  0.77159647  0.83881548     0.93200
O571        O  0.42450130  0.82716410  0.77030499    -0.82200
C572        C  0.43641374  0.84546029  0.75596379     0.93300
O573        O  0.37347413  0.79696570  0.96276364    -0.82200
Mg574      Mg  0.45032047  0.88492311  0.95061005     1.58200
O575        O  0.41455090  0.78792762  0.82004087    -0.80500
O576        O  0.45771659  0.93500043  0.90645259    -0.82200
C577        C  0.41532594  0.83011875  0.67096860    -0.27700
C578        C  0.43234686  0.84738459  0.65339352     0.06000
C579        C  0.45086889  0.86397687  0.66980879     0.25600
C580        C  0.45212257  0.86331737  0.70306382    -0.12100
C581        C  0.43507300  0.84601931  0.72065872    -0.26100
C582        C  0.41661126  0.82935685  0.70413683     0.36400
C583        C  0.43019213  0.84843670  0.61822584     0.06000
F584        F  0.46794702  0.88066050  0.65366265    -0.19900
H585        H  0.46656796  0.87628226  0.71503568     0.15800
F586        F  0.39938877  0.81262935  0.72001794    -0.23600
H587        H  0.40069300  0.81740369  0.65902627     0.17600
C588        C  0.42395957  0.82975767  0.59885303     0.25600
C589        C  0.42139879  0.83094899  0.56590505    -0.12100
C590        C  0.42532208  0.85083359  0.55155899    -0.26200
C591        C  0.43151356  0.86946169  0.57098465     0.36500
C592        C  0.43377634  0.86817890  0.60388552    -0.27800
F593        F  0.42093600  0.81053255  0.61163018    -0.19900
H594        H  0.41685581  0.81644393  0.55148299     0.15800
F595        F  0.43490295  0.88884054  0.55830336    -0.23600
H596        H  0.43807966  0.88263426  0.61828892     0.17600
C597        C  0.44288693  0.86636454  0.17017520    -0.27700
C598        C  0.42332867  0.85221903  0.15346126     0.06000
C599        C  0.40494072  0.83607419  0.17070255     0.25600
C600        C  0.40638517  0.83395229  0.20365332    -0.12100
C601        C  0.42595937  0.84813208  0.22026672    -0.26100
C602        C  0.44416058  0.86457457  0.20318055     0.36400
C603        C  0.42263213  0.85393711  0.11810482     0.06000
F604        F  0.38541239  0.82259482  0.15587491    -0.19900
H605        H  0.39201872  0.82137690  0.21628979     0.15800
F606        F  0.46348190  0.87850144  0.21815408    -0.23600
H607        H  0.45746557  0.87860387  0.15757233     0.17600
C608        C  0.43180446  0.87468527  0.10276932     0.25600
C609        C  0.43233106  0.87609047  0.06949234    -0.12100
C610        C  0.42336806  0.85688723  0.05067812    -0.26200
C611        C  0.41374473  0.83610378  0.06603075     0.36500
C612        C  0.41358963  0.83473785  0.09927557    -0.27800
F613        F  0.43995243  0.89364509  0.11991023    -0.19900
H614        H  0.43955448  0.89228196  0.05842873     0.15800
F615        F  0.40503180  0.81704444  0.04901332    -0.23600
H616        H  0.40682572  0.81857441  0.11028407     0.17600
C617        C  0.52669376  0.02463651  0.75521873    -0.27700
C618        C  0.53366243  0.00967441  0.74630886     0.06000
C619        C  0.54637289  0.01408048  0.71825329     0.25600
C620        C  0.55152148  0.03278942  0.69955578    -0.12100
C621        C  0.54468237  0.04774314  0.70894510    -0.26100
C622        C  0.53236611  0.04354378  0.73716157     0.36400
C623        C  0.52604235  0.98892145  0.76526283     0.06000
F624        F  0.55409510  0.00053828  0.70908064    -0.19900
H625        H  0.56116211  0.03579323  0.67803634     0.15800
F626        F  0.52494306  0.05727730  0.74669475    -0.23600
H627        H  0.51621341  0.02142441  0.77583640     0.17600
C628        C  0.52463805  0.98896496  0.79877665     0.25600
C629        C  0.51365253  0.96900950  0.81576594    -0.12100
C630        C  0.50432224  0.94855023  0.79994923    -0.26200
C631        C  0.50741709  0.94855031  0.76678142     0.36500
C632        C  0.51786585  0.96847597  0.74972844    -0.27800
F633        F  0.53339236  0.00829241  0.81515253    -0.19900
H634        H  0.51190082  0.96959625  0.84129772     0.15800
F635        F  0.49898585  0.92929420  0.75030511    -0.23600
H636        H  0.51835853  0.96772960  0.72404174     0.17600
C637        C  0.46259217  0.97054499  0.51021453    -0.27700
C638        C  0.47132203  0.99081418  0.49385827     0.06000
C639        C  0.47033326  0.99043626  0.46031900     0.25600
C640        C  0.46245497  0.97048818  0.44374963    -0.12100
C641        C  0.45507385  0.95036368  0.46010070    -0.26100
C642        C  0.45432670  0.95053888  0.49367680     0.36400
C643        C  0.48332179  0.01219600  0.51160563     0.06000
F644        F  0.47744721  0.00943395  0.44342042    -0.19900
H645        H  0.46286671  0.97096703  0.41798625     0.15800
F646        F  0.44648952  0.93153321  0.51078058    -0.23600
H647        H  0.46315566  0.97019305  0.53594523     0.17600
C648        C  0.47539238  0.01559409  0.54075650     0.25600
C649        C  0.48805998  0.03519105  0.55811336    -0.12100
C650        C  0.50845879  0.05190558  0.54627951    -0.26200
C651        C  0.51615983  0.04874736  0.51702556     0.36500
C652        C  0.50389273  0.02903865  0.50018848    -0.27800
F653        F  0.45533006  0.00015391  0.55230356    -0.19900
H654        H  0.48183623  0.03744446  0.58055894     0.15800
F655        F  0.53610922  0.06441008  0.50537010    -0.23600
H656        H  0.51087438  0.02674618  0.47851704     0.17600
C657        C  0.56452559  0.13140243  0.91994520    -0.27700
C658        C  0.57179346  0.15049092  0.90109818     0.06000
C659        C  0.57737040  0.17062348  0.91618003     0.25600
C660        C  0.57610819  0.17161919  0.94936257    -0.12100
C661        C  0.56894777  0.15254556  0.96828669    -0.26100
C662        C  0.56309426  0.13233846  0.95310833     0.36400
C663        C  0.57319576  0.14911543  0.86583634     0.06000
F664        F  0.58343451  0.18923410  0.89880117    -0.19900
H665        H  0.58048074  0.18735034  0.96023420     0.15800
F666        F  0.55647225  0.11353239  0.97027290    -0.23600
H667        H  0.56020339  0.11572010  0.90894729     0.17600
C668        C  0.59244974  0.16400553  0.84900139     0.25600
C669        C  0.59342511  0.16248834  0.81584527    -0.12100
C670        C  0.57540137  0.14590788  0.79870708    -0.26200
C671        C  0.55623295  0.13082685  0.81568782     0.36500
C672        C  0.55521372  0.13249615  0.84878950    -0.27800
F673        F  0.61061705  0.17960226  0.86468379    -0.19900
H674        H  0.60851117  0.17412869  0.80362338     0.15800
F675        F  0.53825867  0.11464704  0.80036481    -0.23600
H676        H  0.54019147  0.12085686  0.86115588     0.17600
C677        C  0.58976273  0.16499159  0.34751469    -0.27700
C678        C  0.58058545  0.14528296  0.36526169     0.06000
C679        C  0.57115680  0.12491404  0.34920022     0.25600
C680        C  0.57090023  0.12438131  0.31593978    -0.12100
C681        C  0.58005213  0.14411833  0.29809400    -0.26100
C682        C  0.58952059  0.16449192  0.31427105     0.36400
C683        C  0.58005551  0.14620057  0.40041655     0.06000
F684        F  0.56247095  0.10556679  0.36566103    -0.19900
H685        H  0.56365725  0.10847586  0.30412668     0.15800
F686        F  0.59789870  0.18390788  0.29806608    -0.23600
H687        H  0.59670985  0.18082249  0.35948039     0.17600
C688        C  0.59946125  0.15971997  0.41786361     0.25600
C689        C  0.59842031  0.16186027  0.45081521    -0.12100
C690        C  0.57809538  0.15027113  0.46690727    -0.26200
C691        C  0.55877114  0.13634277  0.44952291     0.36500
C692        C  0.55978621  0.13442468  0.41656720    -0.27800
F693        F  0.61942639  0.17064944  0.40304631    -0.19900
H694        H  0.61353354  0.17239489  0.46383581     0.15800
F695        F  0.53875416  0.12529648  0.46419189    -0.23600
H696        H  0.54461354  0.12417219  0.40349785     0.17600
C697        C  0.50539027  0.96587205  0.24882609    -0.27700
C698        C  0.51776756  0.98634602  0.26428806     0.06000
C699        C  0.51932872  0.98634684  0.29786641     0.25600
C700        C  0.50778447  0.96654475  0.31525651    -0.12100
C701        C  0.49501269  0.94621897  0.29965747    -0.26100
C702        C  0.49444837  0.94607674  0.26609770     0.36400
C703        C  0.52716325  0.00747388  0.24550249     0.06000
F704        F  0.53190770  0.00547641  0.31403123    -0.19900
H705        H  0.50870623  0.96713428  0.34100013     0.15800
F706        F  0.48213938  0.92692658  0.24982469    -0.23600
H707        H  0.50326087  0.96514715  0.22325690     0.17600
C708        C  0.53649976  0.00964563  0.21490490     0.25600
C709        C  0.54291927  0.02878588  0.19646270    -0.12100
C710        C  0.54089710  0.04645865  0.20847253    -0.26200
C711        C  0.53238491  0.04459861  0.23949267     0.36500
C712        C  0.52530855  0.02528914  0.25733777    -0.27800
F713        F  0.53963649  0.99339613  0.20283519    -0.19900
H714        H  0.54964848  0.02986309  0.17288925     0.15800
F715        F  0.52986471  0.06107171  0.25225894    -0.23600
H716        H  0.51762204  0.02408840  0.28017136     0.17600
C717        C  0.48068292  0.03263043  0.00048579    -0.27700
C718        C  0.47932175  0.01288661  0.01116776     0.06000
C719        C  0.48830266  0.01266350  0.04112585     0.25600
C720        C  0.49879658  0.03187488  0.05954919    -0.12100
C721        C  0.50099538  0.05191307  0.04842244    -0.26100
C722        C  0.49134514  0.05195503  0.01882916     0.36400
C723        C  0.47015194  0.99308281  0.99019710     0.06000
F724        F  0.48830841  0.99426352  0.05175221    -0.19900
H725        H  0.50622067  0.03125475  0.08191975     0.15800
F726        F  0.49275735  0.07076348  0.00702490    -0.23600
H727        H  0.47385092  0.03319345  0.97754813     0.17600
C728        C  0.45509012  0.97190328  0.00203742     0.25600
C729        C  0.44937140  0.95307078  0.98379282    -0.12100
C730        C  0.45818271  0.95490215  0.95311019    -0.26200
C731        C  0.47183140  0.97620527  0.94024232     0.36500
C732        C  0.47780225  0.99506808  0.95874335    -0.27800
F733        F  0.44620686  0.96937563  0.03153040    -0.19900
H734        H  0.43840746  0.93694194  0.99407245     0.15800
F735        F  0.48054177  0.97885615  0.91060625    -0.23600
H736        H  0.48931030  0.01121666  0.94899917     0.17600
C737        C  0.67867713  0.28424546  0.69217189    -0.27700
C738        C  0.69568480  0.28490726  0.71077965     0.06000
C739        C  0.69229723  0.26547370  0.72601408     0.25600
C740        C  0.67235241  0.24551193  0.72175196    -0.12100
C741        C  0.65558935  0.24461648  0.70202281    -0.26100
C742        C  0.65888569  0.26437627  0.68763473     0.36400
C743        C  0.71684872  0.30601410  0.71391338     0.06000
F744        F  0.70825327  0.26583896  0.74502282    -0.19900
H745        H  0.67030275  0.23064442  0.73313092     0.15800
F746        F  0.64311802  0.26457043  0.66881358    -0.23600
H747        H  0.68095742  0.29911936  0.68048718     0.17600
C748        C  0.73692161  0.30791103  0.70366151     0.25600
C749        C  0.75674532  0.32816210  0.70618159    -0.12100
C750        C  0.75688711  0.34672622  0.71937203    -0.26200
C751        C  0.73663110  0.34481184  0.72911768     0.36500
C752        C  0.71684420  0.32468479  0.72612709    -0.27800
F753        F  0.73729717  0.29023474  0.69095142    -0.19900
H754        H  0.77207905  0.32913496  0.69871062     0.15800
F755        F  0.73589605  0.36235940  0.74164395    -0.23600
H756        H  0.70147265  0.32355531  0.73380687     0.17600
C757        C  0.73748697  0.30886177  0.19566012    -0.27700
C758        C  0.71806854  0.30438127  0.21180814     0.06000
C759        C  0.71820402  0.32069404  0.23134643     0.25600
C760        C  0.73760912  0.34112793  0.23495634    -0.12100
C761        C  0.75731939  0.34567599  0.21925158    -0.26100
C762        C  0.75701592  0.32925524  0.19942312     0.36400
C763        C  0.69743111  0.28302756  0.20715446     0.06000
F764        F  0.69946518  0.31693603  0.24659108    -0.19900
H765        H  0.73721583  0.35334329  0.25037637     0.15800
F766        F  0.77566579  0.33256185  0.18441963    -0.23600
H767        H  0.73754986  0.29640475  0.18039519     0.17600
C768        C  0.68628902  0.27840048  0.17795070     0.25600
C769        C  0.66635542  0.25861256  0.17372942    -0.12100
C770        C  0.65723770  0.24283136  0.19839564    -0.26200
C771        C  0.66868271  0.24734589  0.22758763     0.36500
C772        C  0.68852094  0.26744251  0.23195896    -0.27800
F773        F  0.69451811  0.29325730  0.15368221    -0.19900
H774        H  0.65812772  0.25557548  0.15087090     0.15800
F775        F  0.66057962  0.23261360  0.25200484    -0.23600
H776        H  0.69700185  0.27084904  0.25465435     0.17600
C777        C  0.82896316  0.41436018  0.50568442    -0.27700
C778        C  0.85002058  0.42385231  0.51984485     0.06000
C779        C  0.86891514  0.43413877  0.50034349     0.25600
C780        C  0.86674608  0.43559558  0.46747697    -0.12100
C781        C  0.84569979  0.42662303  0.45319905    -0.26100
C782        C  0.82673540  0.41569239  0.47272940     0.36400
C783        C  0.85217649  0.42344844  0.55495937     0.06000
F784        F  0.88950165  0.44250057  0.51303595    -0.19900
H785        H  0.88165626  0.44370846  0.45316558     0.15800
F786        F  0.80602788  0.40660241  0.46022748    -0.23600
H787        H  0.81419378  0.40629166  0.52030178     0.17600
C788        C  0.86507484  0.44319504  0.57195853     0.25600
C789        C  0.86696826  0.44274972  0.60506544    -0.12100
C790        C  0.85573640  0.42268962  0.62194837    -0.26200
C791        C  0.84270655  0.40292492  0.60495442     0.36500
C792        C  0.84099350  0.40335773  0.57176711    -0.27800
F793        F  0.87524568  0.46301689  0.55664119    -0.19900
H794        H  0.87680918  0.45821140  0.61762686     0.15800
F795        F  0.83201191  0.38314018  0.62031824    -0.23600
H796        H  0.83103508  0.38796172  0.55910865     0.17600
C797        C  0.83607645  0.41066042  0.00229432    -0.27700
C798        C  0.85061332  0.42959078  0.01993484     0.06000
C799        C  0.86335507  0.44973790  0.00338177     0.25600
C800        C  0.86156492  0.45073115  0.97023208    -0.12100
C801        C  0.84666801  0.43188983  0.95285575    -0.26100
C802        C  0.83389021  0.41180422  0.96928747     0.36400
C803        C  0.85240530  0.42815022  0.05532056     0.06000
F804        F  0.87712355  0.46866911  0.01923735    -0.19900
H805        H  0.87156490  0.46641196  0.95816606     0.15800
F806        F  0.81981818  0.39304363  0.95331160    -0.23600
H807        H  0.82653603  0.39477570  0.01400148     0.17600
C808        C  0.83340295  0.41592848  0.07436438     0.25600
C809        C  0.83531101  0.41468264  0.10741365    -0.12100
C810        C  0.85610722  0.42582638  0.12255444    -0.26200
C811        C  0.87512219  0.43806383  0.10354773     0.36500
C812        C  0.87323981  0.43897265  0.07041879    -0.27800
F813        F  0.81282759  0.40569639  0.06126424    -0.19900
H814        H  0.82032783  0.40527482  0.12125624     0.15800
F815        F  0.89563722  0.44902317  0.11679693    -0.23600
H816        H  0.88823636  0.44804683  0.05651520     0.17600
C817        C  0.27874563  0.68084714  0.49283540    -0.27700
C818        C  0.28172766  0.69351166  0.46545926     0.06000
C819        C  0.26495849  0.68554863  0.44217900     0.25600
C820        C  0.24550472  0.66516615  0.44638991    -0.12100
C821        C  0.24253966  0.65229799  0.47372700    -0.26100
C822        C  0.25945937  0.66046130  0.49702724     0.36400
C823        C  0.30293657  0.71433746  0.46062701     0.06000
F824        F  0.26727943  0.69764150  0.41560244    -0.19900
H825        H  0.23275758  0.65948480  0.42825733     0.15800
F826        F  0.25739147  0.64898966  0.52419826    -0.23600
H827        H  0.29159417  0.68662368  0.51084177     0.17600
C828        C  0.31113311  0.73139807  0.48335467     0.25600
C829        C  0.33163023  0.75067724  0.47867224    -0.12100
C830        C  0.34440019  0.75314452  0.45145248    -0.26200
C831        C  0.33611002  0.73576451  0.42895916     0.36500
C832        C  0.31560942  0.71670735  0.43357457    -0.27800
F833        F  0.29911842  0.72958352  0.50973715    -0.19900
H834        H  0.33741733  0.76372652  0.49626033     0.15800
F835        F  0.34757069  0.73711957  0.40215359    -0.23600
H836        H  0.30969995  0.70357498  0.41608016     0.17600
C837        C  0.01083258  0.48662058  0.63112628    -0.27700
C838        C  0.01171747  0.47849689  0.66143588     0.06000
C839        C  0.03185142  0.48050520  0.67178248     0.25600
C840        C  0.05089927  0.49156254  0.65294848    -0.12100
C841        C  0.05031059  0.50069325  0.62324553    -0.26100
C842        C  0.02980951  0.49753081  0.61215275     0.36400
C843        C  0.99179022  0.46901527  0.68229579     0.06000
F844        F  0.03318685  0.47187755  0.70015012    -0.19900
H845        H  0.06629184  0.49344144  0.66210021     0.15800
F846        F  0.02814407  0.50574907  0.58360188    -0.23600
H847        H  0.99553383  0.48527845  0.62254497     0.17600
C848        C  0.99310922  0.47626129  0.71392628     0.25600
C849        C  0.97381715  0.46943338  0.73179423    -0.12100
C850        C  0.95283420  0.45566232  0.71836372    -0.26200
C851        C  0.95157738  0.44755485  0.68727908     0.36500
C852        C  0.97086598  0.45414197  0.66959416    -0.27800
F853        F  0.01284990  0.49126269  0.72685803    -0.19900
H854        H  0.97528485  0.47604895  0.75552948     0.15800
F855        F  0.93169701  0.43372221  0.67355804    -0.23600
H856        H  0.96940901  0.44811085  0.64547971     0.17600
C857        C  0.02524836  0.53273116  0.41593107    -0.27700
C858        C  0.00609776  0.52930677  0.43189297     0.06000
C859        C  0.00744303  0.53341673  0.46493277     0.25600
C860        C  0.02725649  0.53992591  0.48149790    -0.12100
C861        C  0.04625339  0.54285720  0.46550996    -0.26100
C862        C  0.04509821  0.53966801  0.43224502     0.36400
C863        C  0.98463002  0.51958465  0.41426161     0.06000
F864        F  0.98961810  0.53102790  0.48135993    -0.19900
H865        H  0.02761569  0.54237517  0.50697784     0.15800
F866        F  0.06282197  0.54219065  0.41537952    -0.23600
H867        H  0.02472668  0.52912826  0.39080434     0.17600
C868        C  0.98358645  0.52570710  0.38247393     0.25600
C869        C  0.96415570  0.51377797  0.36456860    -0.12100
C870        C  0.94517129  0.49626924  0.37842253    -0.26200
C871        C  0.94568258  0.49114728  0.41070663     0.36500
C872        C  0.96529942  0.50238081  0.42815274    -0.27800
F873        F  0.00137109  0.54310303  0.36857869    -0.19900
H874        H  0.96392418  0.51820231  0.33989142     0.15800
F875        F  0.92757672  0.47425267  0.42488340    -0.23600
H876        H  0.96552940  0.49682642  0.45215536     0.17600
C877        C  0.28557064  0.67890289  0.97421544    -0.27700
C878        C  0.28508931  0.69809437  0.96553437     0.06000
C879        C  0.26455599  0.69660305  0.95917808     0.25600
C880        C  0.24486390  0.67611119  0.96130698    -0.12100
C881        C  0.24533992  0.65694696  0.97049319    -0.26100
C882        C  0.26594115  0.65859211  0.97709160     0.36400
C883        C  0.30625978  0.71915782  0.96130533     0.06000
F884        F  0.26359063  0.71486758  0.95050388    -0.19900
H885        H  0.22918347  0.67533849  0.95673979     0.15800
F886        F  0.26712995  0.64051785  0.98620163    -0.23600
H887        H  0.30125012  0.67972360  0.97904030     0.17600
C888        C  0.31151975  0.73811981  0.97935126     0.25600
C889        C  0.33193322  0.75765436  0.97503993    -0.12100
C890        C  0.34735670  0.75863017  0.95253427    -0.26200
C891        C  0.34187956  0.73943981  0.93460834     0.36500
C892        C  0.32166388  0.72001744  0.93918728    -0.27800
F893        F  0.29711163  0.73762939  0.00146874    -0.19900
H894        H  0.33555264  0.77207070  0.98909809     0.15800
F895        F  0.35586920  0.73931847  0.91227078    -0.23600
H896        H  0.31787358  0.70556441  0.92507009     0.17600
C897        C  0.99214655  0.46672122  0.21297168    -0.27700
C898        C  0.99375490  0.47460732  0.18151395     0.06000
C899        C  0.97513367  0.47464802  0.16841381     0.25600
C900        C  0.95571358  0.46699575  0.18601812    -0.12100
C901        C  0.95431294  0.45985880  0.21768101    -0.26100
C902        C  0.97284889  0.45989250  0.23115231     0.36400
C903        C  0.01494142  0.48394478  0.16292902     0.06000
F904        F  0.97590417  0.48325464  0.13911959    -0.19900
H905        H  0.94195925  0.46764507  0.17506039     0.15800
F906        F  0.97239264  0.45338326  0.26175377    -0.23600
H907        H  0.00587820  0.46595828  0.22371227     0.17600
C908        C  0.03567466  0.49747373  0.17755059     0.25600
C909        C  0.05498707  0.50822608  0.15922470    -0.12100
C910        C  0.05417235  0.50642051  0.12587030    -0.26200
C911        C  0.03371242  0.49243882  0.11122426     0.36500
C912        C  0.01448467  0.48088152  0.12967081    -0.27800
F913        F  0.03731121  0.50156618  0.20927829    -0.19900
H914        H  0.07053256  0.51903030  0.17112782     0.15800
F915        F  0.03223917  0.49002798  0.07911925    -0.23600
H916        H  0.99907347  0.46989258  0.11766793     0.17600
C917        C  0.13022335  0.56833604  0.82003962    -0.27700
C918        C  0.14848270  0.56801760  0.80645369     0.06000
C919        C  0.16578270  0.57043236  0.82656298     0.25600
C920        C  0.16500745  0.57369415  0.85931950    -0.12100
C921        C  0.14673914  0.57399994  0.87275582    -0.26100
C922        C  0.12920617  0.57103909  0.85285788     0.36400
C923        C  0.14985093  0.56631909  0.77128084     0.06000
F924        F  0.18320012  0.56914086  0.81466447    -0.19900
H925        H  0.17843698  0.57542411  0.87434981     0.15800
F926        F  0.11135566  0.57139419  0.86504425    -0.23600
H927        H  0.11687045  0.56690663  0.80513069     0.17600
C928        C  0.13160032  0.55064833  0.75342176     0.25600
C929        C  0.13281369  0.55028211  0.72016549    -0.12100
C930        C  0.15226703  0.56537347  0.70393799    -0.26200
C931        C  0.17066828  0.58074641  0.72196951     0.36500
C932        C  0.16934668  0.58121624  0.75513258    -0.27800
F933        F  0.11266551  0.53547476  0.76810538    -0.19900
H934        H  0.11846498  0.53808100  0.70711773     0.15800
F935        F  0.18987849  0.59572650  0.70768847    -0.23600
H936        H  0.18351526  0.59367583  0.76819882     0.17600
C937        C  0.14008404  0.55258537  0.25357864    -0.27700
C938        C  0.15062576  0.57280541  0.27013274     0.06000
C939        C  0.16312773  0.59255854  0.25271489     0.25600
C940        C  0.16514576  0.59198321  0.21965373    -0.12100
C941        C  0.15427348  0.57183494  0.20317143    -0.26100
C942        C  0.14165888  0.55208110  0.22040712     0.36400
C943        C  0.14864567  0.57324534  0.30540623     0.06000
F944        F  0.17280683  0.61251817  0.26749031    -0.19900
H945        H  0.17472086  0.60739670  0.20676726     0.15800
F946        F  0.13132582  0.53224329  0.20526730    -0.23600
H947        H  0.13073847  0.53710402  0.26637416     0.17600
C948        C  0.12799382  0.56099181  0.32069572     0.25600
C949        C  0.12640024  0.56181465  0.35382035    -0.12100
C950        C  0.14528618  0.57489967  0.37254640    -0.26200
C951        C  0.16597565  0.58710651  0.35717270     0.36500
C952        C  0.16755504  0.58613483  0.32408881    -0.27800
F953        F  0.10920641  0.54863911  0.30360168    -0.19900
H954        H  0.11023820  0.55227674  0.36477965     0.15800
F955        F  0.18481694  0.59983854  0.37396747    -0.23600
H956        H  0.18372083  0.59538301  0.31304550     0.17600
C957        C  0.01242918  0.54138095  0.95609545    -0.27700
C958        C  0.00883770  0.52961547  0.92739586     0.06000
C959        C  0.02530359  0.52501389  0.91692619     0.25600
C960        C  0.04471630  0.53205996  0.93454719    -0.12100
C961        C  0.04810628  0.54334717  0.96352217    -0.26100
C962        C  0.03171649  0.54794611  0.97422142     0.36400
C963        C  0.98766436  0.52119722  0.90913773     0.06000
F964        F  0.02225619  0.51275663  0.89038294    -0.19900
H965        H  0.05685768  0.52793475  0.92596305     0.15800
F966        F  0.03444893  0.55902153  0.00188075    -0.23600
H967        H  0.00025174  0.54546370  0.96458902     0.17600
C968        C  0.96699259  0.51037603  0.92469898     0.25600
C969        C  0.94727317  0.50020067  0.90710860    -0.12100
C970        C  0.94759610  0.50012677  0.87362916    -0.26200
C971        C  0.96817004  0.51186355  0.85802287     0.36500
C972        C  0.98790685  0.52247245  0.87564542    -0.27800
F973        F  0.96576462  0.50823086  0.95685505    -0.19900
H974        H  0.93172253  0.49118472  0.91983439     0.15800
F975        F  0.96928169  0.51275785  0.82576017    -0.23600
H976        H  0.00349875  0.53123184  0.86298088     0.17600
C977        C  0.39963711  0.71276930  0.83604496    -0.27700
C978        C  0.40507781  0.71116448  0.80448414     0.06000
C979        C  0.41132769  0.72928888  0.78384498     0.25600
C980        C  0.41250881  0.74879450  0.79491099    -0.12100
C981        C  0.40736885  0.75058203  0.82671107    -0.26100
C982        C  0.40062893  0.73211550  0.84710705     0.36400
C983        C  0.40404080  0.69050717  0.79322412     0.06000
F984        F  0.41688842  0.72835132  0.75318587    -0.19900
H985        H  0.41770428  0.76259024  0.77863088     0.15800
F986        F  0.39492407  0.73257112  0.87785552    -0.23600
H987        H  0.39441197  0.69887802  0.85216929     0.17600
C988        C  0.41547313  0.68146004  0.80925554     0.25600
C989        C  0.41500646  0.66242496  0.79756156    -0.12100
C990        C  0.40322368  0.65214209  0.76965212    -0.26200
C991        C  0.39108713  0.66076727  0.75442043     0.36500
C992        C  0.39156847  0.67973788  0.76611536    -0.27800
F993        F  0.42785230  0.69155739  0.83543490    -0.19900
H994        H  0.42452096  0.65620167  0.80970871     0.15800
F995        F  0.37868780  0.65087714  0.72817960    -0.23600
H996        H  0.38220232  0.68610252  0.75388653     0.17600
C997        C  0.28605210  0.60090502  0.59133222    -0.27700
C998        C  0.28588347  0.59009714  0.61943241     0.06000
C999        C  0.26695065  0.58066901  0.63886722     0.25600
C1000       C  0.24795520  0.58127909  0.62928529    -0.12100
C1001       C  0.24777550  0.59136338  0.60029842    -0.26100
C1002       C  0.26732763  0.60168973  0.58182213     0.36400
C1003       C  0.30566774  0.58866299  0.62742274     0.06000
F1004       F  0.26663893  0.57032189  0.66643713    -0.19900
H1005       H  0.23322667  0.57328756  0.64398004     0.15800
F1006       F  0.26841592  0.61240888  0.55426240    -0.23600
H1007       H  0.30073394  0.60855461  0.57647728     0.17600
C1008       C  0.31050594  0.57430076  0.61043944     0.25600
C1009       C  0.33073591  0.57501238  0.61497986    -0.12100
C1010       C  0.34646344  0.59013120  0.63648029    -0.26200
C1011       C  0.34132144  0.60437517  0.65373382     0.36500
C1012       C  0.32108208  0.60356518  0.64914428    -0.27800
F1013       F  0.29569412  0.55975902  0.58922756    -0.19900
H1014       H  0.33402674  0.56365624  0.60177427     0.15800
F1015       F  0.35591539  0.61938549  0.67471070    -0.23600
H1016       H  0.31765862  0.61499457  0.66192426     0.17600
C1017       C  0.39631726  0.68400056  0.25006054    -0.27700
C1018       C  0.40288583  0.69172294  0.28115567     0.06000
C1019       C  0.40975602  0.68020957  0.30147528     0.25600
C1020       C  0.41024769  0.66144958  0.29066702    -0.12100
C1021       C  0.40383062  0.65371097  0.25940290    -0.26100
C1022       C  0.39663306  0.66519608  0.23924144     0.36400
C1023       C  0.40208657  0.71147795  0.29250496     0.06000
F1024       F  0.41654424  0.68746564  0.33157680    -0.19900
H1025       H  0.41595412  0.65315997  0.30670393     0.15800
F1026       F  0.38976100  0.65831329  0.20901615    -0.23600
H1027       H  0.39068162  0.69244791  0.23418522     0.17600
C1028       C  0.41404208  0.73211087  0.27703458     0.25600
C1029       C  0.41369724  0.75074702  0.28887309    -0.12100
C1030       C  0.40146875  0.74913194  0.31634396    -0.26200
C1031       C  0.38885133  0.72822107  0.33098840     0.36500
C1032       C  0.38927254  0.70970180  0.31921292    -0.27800
F1033       F  0.42676955  0.73443198  0.25128627    -0.19900
H1034       H  0.42361318  0.76659710  0.27720212     0.15800
F1035       F  0.37601038  0.72559878  0.35672855    -0.23600
H1036       H  0.37957437  0.69387210  0.33104899     0.17600
C1037       C  0.31548096  0.59222731  0.15333949    -0.27700
C1038       C  0.30600630  0.58845193  0.12299128     0.06000
C1039       C  0.31534330  0.58228647  0.09812910     0.25600
C1040       C  0.33434193  0.58065759  0.10347870    -0.12100
C1041       C  0.34442384  0.58541374  0.13359125    -0.26100
C1042       C  0.33446119  0.59073726  0.15869637     0.36400
C1043       C  0.28711513  0.59206728  0.11699285     0.06000
F1044       F  0.30607479  0.57788985  0.06868194    -0.19900
H1045       H  0.34147190  0.57624459  0.08392366     0.15800
F1046       F  0.34300462  0.59446298  0.18859648    -0.23600
H1047       H  0.30848083  0.59689946  0.17277904     0.17600
C1048       C  0.26725938  0.58070427  0.13442936     0.25600
C1049       C  0.24909513  0.58329201  0.12662856    -0.12100
C1050       C  0.25059173  0.59733583  0.10151635    -0.26200
C1051       C  0.27108268  0.60992229  0.08581835     0.36500
C1052       C  0.28904031  0.60715858  0.09340976    -0.27800
F1053       F  0.26506711  0.56626594  0.15780572    -0.19900
H1054       H  0.23356196  0.57347254  0.13910207     0.15800
F1055       F  0.27366476  0.62460074  0.06257137    -0.23600
H1056       H  0.30445976  0.61662234  0.08050357     0.17600
C1057       C  0.44280370  0.57213203  0.98562782    -0.27700
C1058       C  0.42398513  0.56914056  0.96902101     0.06000
C1059       C  0.40440146  0.56303819  0.98612744     0.25600
C1060       C  0.40402845  0.56089819  0.01927926    -0.12100
C1061       C  0.42298097  0.56428983  0.03600226    -0.26100
C1062       C  0.44234615  0.56963248  0.01869912     0.36400
C1063       C  0.42501301  0.57236890  0.93396632     0.06000
F1064       F  0.38547802  0.55865852  0.97075785    -0.19900
H1065       H  0.38878665  0.55637163  0.03187551     0.15800
F1066       F  0.46109989  0.57314923  0.03372618    -0.23600
H1067       H  0.45806759  0.57681093  0.97298455     0.17600
C1068       C  0.41745514  0.58562641  0.91955081     0.25600
C1069       C  0.41866696  0.58857051  0.88653806    -0.12100
C1070       C  0.42773705  0.57867514  0.86721444    -0.26200
C1071       C  0.43560055  0.56566531  0.88174044     0.36500
C1072       C  0.43417469  0.56256118  0.91472018    -0.27800
F1073       F  0.40954468  0.59633405  0.93741945    -0.19900
H1074       H  0.41277988  0.59892036  0.87614729     0.15800
F1075       F  0.44437648  0.55562582  0.86416232    -0.23600
H1076       H  0.44009342  0.55227980  0.92526503     0.17600
C1077       C  0.41945276  0.58667072  0.48721937    -0.27700
C1078       C  0.42727638  0.57520647  0.46873444     0.06000
C1079       C  0.43495924  0.56246184  0.48455631     0.25600
C1080       C  0.43464786  0.56122239  0.51783859    -0.12100
C1081       C  0.42636265  0.57229512  0.53622805    -0.26100
C1082       C  0.41878660  0.58511548  0.52048957     0.36400
C1083       C  0.42773469  0.57701299  0.43323073     0.06000
F1084       F  0.44220803  0.55064708  0.46794928    -0.19900
H1085       H  0.44049125  0.55113485  0.52923472     0.15800
F1086       F  0.41120982  0.59660451  0.53719773    -0.23600
H1087       H  0.41407266  0.59715497  0.47590992     0.17600
C1088       C  0.40989044  0.57627601  0.41623599     0.25600
C1089       C  0.41108240  0.57926053  0.38315301    -0.12100
C1090       C  0.42976878  0.58242306  0.36606199    -0.26200
C1091       C  0.44726878  0.58236231  0.38288378     0.36500
C1092       C  0.44635212  0.58003766  0.41603308    -0.27800
F1093       F  0.39103800  0.57217453  0.43145495    -0.19900
H1094       H  0.39715089  0.57871152  0.37080876     0.15800
F1095       F  0.46559090  0.58511305  0.36747995    -0.23600
H1096       H  0.46050868  0.58104936  0.42830165     0.17600
C1097       C  0.59808640  0.28540087  0.08163821    -0.27700
C1098       C  0.58975410  0.28564007  0.05134952     0.06000
C1099       C  0.58342716  0.26733097  0.03115560     0.25600
C1100       C  0.58494231  0.24898592  0.04160651    -0.12100
C1101       C  0.59277515  0.24852920  0.07233656    -0.26100
C1102       C  0.59953336  0.26718017  0.09215377     0.36400
C1103       C  0.58799086  0.30519457  0.04135290     0.06000
F1104       F  0.57509491  0.26683020  0.00174861    -0.19900
H1105       H  0.57954401  0.23494896  0.02584816     0.15800
F1106       F  0.60744056  0.26794309  0.12196576    -0.23600
H1107       H  0.60358177  0.29948512  0.09734607     0.17600
C1108       C  0.57862339  0.31428949  0.06177582     0.25600
C1109       C  0.57834801  0.33353801  0.05318298    -0.12100
C1110       C  0.58727899  0.34415346  0.02399733    -0.26200
C1111       C  0.59622719  0.33474241  0.00323849     0.36500
C1112       C  0.59660926  0.31554635  0.01197258    -0.27800
F1113       F  0.56943339  0.30439512  0.08994643    -0.19900
H1114       H  0.57108400  0.34011988  0.06950090     0.15800
F1115       F  0.60450815  0.34390863  0.97435759    -0.23600
H1116       H  0.60405881  0.30899386  0.99594007     0.17600
C1117       C  0.67655933  0.40994023  0.84666813    -0.27700
C1118       C  0.68802416  0.40325137  0.86746791     0.06000
C1119       C  0.67880121  0.39457910  0.89735499     0.25600
C1120       C  0.65923026  0.39363702  0.90686950    -0.12100
C1121       C  0.64812374  0.40118368  0.88687228    -0.26100
C1122       C  0.65668809  0.40882774  0.85615595     0.36400
C1123       C  0.70950950  0.40514600  0.85838435     0.06000
F1124       F  0.68865935  0.38681792  0.91743771    -0.19900
H1125       H  0.65293786  0.38718258  0.93038907     0.15800
F1126       F  0.64634032  0.41581803  0.83570026    -0.23600
H1127       H  0.68327806  0.41654977  0.82337304     0.17600
C1128       C  0.71187521  0.39680833  0.82924571     0.25600
C1129       C  0.73169339  0.39742156  0.82194958    -0.12100
C1130       C  0.74975041  0.40646344  0.84335453    -0.26200
C1131       C  0.74745027  0.41496078  0.87245523     0.36500
C1132       C  0.72754550  0.41437966  0.87974001    -0.27800
F1133       F  0.69484455  0.38746197  0.80814770    -0.19900
H1134       H  0.73281384  0.39067907  0.79929398     0.15800
F1135       F  0.76445729  0.42418789  0.89357231    -0.23600
H1136       H  0.72621000  0.42121561  0.90218212     0.17600
C1137       C  0.53350859  0.52335511  0.87435053    -0.27700
C1138       C  0.53087274  0.52256067  0.84101901     0.06000
C1139       C  0.53672267  0.50909163  0.82337664     0.25600
C1140       C  0.54434501  0.49640989  0.83870354    -0.12100
C1141       C  0.54569445  0.49618131  0.87199461    -0.26100
C1142       C  0.54046550  0.51001958  0.88979873     0.36400
C1143       C  0.52038674  0.53412073  0.82481620     0.06000
F1144       F  0.53369224  0.50690000  0.79139972    -0.19900
H1145       H  0.54802841  0.48573755  0.82444009     0.15800
F1146       F  0.54191465  0.51056019  0.92204789    -0.23600
H1147       H  0.52975703  0.53397330  0.88858736     0.17600
C1148       C  0.50147982  0.53359139  0.83782249     0.25600
C1149       C  0.48991652  0.54161988  0.82032449    -0.12100
C1150       C  0.49644993  0.54969766  0.78927483    -0.26200
C1151       C  0.51571688  0.55114739  0.77663117     0.36500
C1152       C  0.52785217  0.54390756  0.79459110    -0.27800
F1153       F  0.49320759  0.52403511  0.86650731    -0.19900
H1154       H  0.47507755  0.54046104  0.83046572     0.15800
F1155       F  0.52278886  0.55956867  0.74704650    -0.23600
H1156       H  0.54279740  0.54539157  0.78440975     0.17600
C1157       C  0.48485211  0.47630714  0.04165643    -0.27700
C1158       C  0.47924947  0.46749063  0.07262251     0.06000
C1159       C  0.48344021  0.45047568  0.08150687     0.25600
C1160       C  0.49411590  0.44338796  0.06037058    -0.12100
C1161       C  0.50062390  0.45292516  0.02987324    -0.26100
C1162       C  0.49537518  0.46911817  0.02043381     0.36400
C1163       C  0.46988905  0.47693168  0.09542350     0.06000
F1164       F  0.47737107  0.44080531  0.11063333    -0.19900
H1165       H  0.49781310  0.43076507  0.06818549     0.15800
F1166       F  0.50176614  0.47913726  0.99157774    -0.23600
H1167       H  0.48188620  0.48950159  0.03428641     0.17600
C1168       C  0.47942088  0.48456581  0.12569987     0.25600
C1169       C  0.47245713  0.49639987  0.14480118    -0.12100
C1170       C  0.45619331  0.50113325  0.13385654    -0.26200
C1171       C  0.44583795  0.49238676  0.10442033     0.36500
C1172       C  0.45260987  0.48040451  0.08555318    -0.27800
F1173       F  0.49659604  0.48212444  0.13582452    -0.19900
H1174       H  0.48080630  0.50308708  0.16723746     0.15800
F1175       F  0.42957933  0.49598265  0.09336684    -0.23600
H1176       H  0.44482668  0.47444594  0.06257636     0.17600
C1177       C  0.61068891  0.31841575  0.50476213    -0.27700
C1178       C  0.59860382  0.30603580  0.53120893     0.06000
C1179       C  0.58570330  0.31290871  0.54825829     0.25600
C1180       C  0.58488059  0.33180263  0.53878821    -0.12100
C1181       C  0.59679641  0.34408872  0.51205615    -0.26100
C1182       C  0.60988595  0.33723694  0.49525714     0.36400
C1183       C  0.60033584  0.28662922  0.54186557     0.06000
F1184       F  0.57345982  0.30099701  0.57361869    -0.19900
H1185       H  0.57448610  0.33649063  0.55186286     0.15800
F1186       F  0.62222227  0.34890588  0.46979963    -0.23600
H1187       H  0.62103754  0.31365959  0.49168926     0.17600
C1188       C  0.59495858  0.26854694  0.52164233     0.25600
C1189       C  0.59567790  0.24993641  0.53303567    -0.12100
C1190       C  0.60205536  0.24919753  0.56462124    -0.26200
C1191       C  0.60867708  0.26801750  0.58406195     0.36500
C1192       C  0.60758831  0.28629379  0.57281793    -0.27800
F1193       F  0.58819867  0.26852270  0.49131660    -0.19900
H1194       H  0.59065520  0.23588837  0.51742092     0.15800
F1195       F  0.61602482  0.26883306  0.61425000    -0.23600
H1196       H  0.61240695  0.30030791  0.58845150     0.17600
C1197       C  0.68168545  0.40043301  0.40004087    -0.27700
C1198       C  0.69310922  0.40912122  0.37156458     0.06000
C1199       C  0.68465898  0.41776073  0.34882296     0.25600
C1200       C  0.66487035  0.41767140  0.35463120    -0.12100
C1201       C  0.65309367  0.40864616  0.38300630    -0.26100
C1202       C  0.66180375  0.40004930  0.40578669     0.36400
C1203       C  0.71291865  0.40755736  0.36461329     0.06000
F1204       F  0.69560844  0.42628476  0.32105042    -0.19900
H1205       H  0.65870002  0.42451324  0.33683890     0.15800
F1206       F  0.65132044  0.39142281  0.43383026    -0.23600
H1207       H  0.68798139  0.39353589  0.41758147     0.17600
C1208       C  0.73280555  0.42015158  0.38145978     0.25600
C1209       C  0.75165528  0.41895514  0.37328226    -0.12100
C1210       C  0.75071673  0.40515560  0.34830844    -0.26200
C1211       C  0.73039729  0.39181774  0.33263198     0.36500
C1212       C  0.71174578  0.39313588  0.34069631    -0.27800
F1213       F  0.73417073  0.43418509  0.40481811    -0.19900
H1214       H  0.76713918  0.42943860  0.38552496     0.15800
F1215       F  0.72858691  0.37762597  0.30922075    -0.23600
H1216       H  0.69633884  0.38300973  0.32804811     0.17600
C1217       C  0.57770699  0.44168018  0.73486145    -0.27700
C1218       C  0.57394286  0.42229532  0.71928950     0.06000
C1219       C  0.57043147  0.40393280  0.73763732     0.25600
C1220       C  0.57122735  0.40516640  0.77086077    -0.12100
C1221       C  0.57533379  0.42464217  0.78657638    -0.26100
C1222       C  0.57837735  0.44289369  0.76818931     0.36400
C1223       C  0.57407438  0.42131445  0.68400056     0.06000
F1224       F  0.56594763  0.38467564  0.72339667    -0.19900
H1225       H  0.56858058  0.39078597  0.78436527     0.15800
F1226       F  0.58290164  0.46219454  0.78229214    -0.23600
H1227       H  0.58062650  0.45607433  0.72114891     0.17600
C1228       C  0.56022623  0.42623293  0.66558459     0.25600
C1229       C  0.55989357  0.42434012  0.63241797    -0.12100
C1230       C  0.57338898  0.41755472  0.61686226    -0.26200
C1231       C  0.58767321  0.41317617  0.63539412     0.36500
C1232       C  0.58790148  0.41499718  0.66856143    -0.27800
F1233       F  0.54644127  0.43211929  0.67971905    -0.19900
H1234       H  0.54874889  0.42788615  0.61895881     0.15800
F1235       F  0.60145036  0.40712509  0.62164003    -0.23600
H1236       H  0.59894911  0.41146282  0.68230484     0.17600
C1237       C  0.58949065  0.42902137  0.23621124    -0.27700
C1238       C  0.57016456  0.42565586  0.22074529     0.06000
C1239       C  0.55225919  0.42333985  0.23903968     0.25600
C1240       C  0.55401156  0.42511921  0.27210223    -0.12100
C1241       C  0.57349307  0.42891846  0.28765772    -0.26100
C1242       C  0.59119425  0.43059683  0.26936718     0.36400
C1243       C  0.56885901  0.42467908  0.18558521     0.06000
F1244       F  0.53290487  0.41894194  0.22501184    -0.19900
H1245       H  0.53997048  0.42333953  0.28557909     0.15800
F1246       F  0.61035871  0.43434886  0.28332034    -0.23600
H1247       H  0.60345783  0.43083049  0.22250577     0.17600
C1248       C  0.56255875  0.43797957  0.16844249     0.25600
C1249       C  0.56126242  0.43681977  0.13529896    -0.12100
C1250       C  0.56635218  0.42250330  0.11845460    -0.26200
C1251       C  0.57300004  0.40943751  0.13571562     0.36500
C1252       C  0.57423962  0.41059261  0.16893378    -0.27800
F1253       F  0.55815820  0.45249875  0.18366898    -0.19900
H1254       H  0.55626214  0.44723548  0.12283914     0.15800
F1255       F  0.57835674  0.39556366  0.12067228    -0.23600
H1256       H  0.57921283  0.40027900  0.18175255     0.17600
C1257       C  0.51137753  0.54436886  0.34062451    -0.27700
C1258       C  0.52024340  0.53266260  0.32526021     0.06000
C1259       C  0.51938861  0.53152194  0.29173297     0.25600
C1260       C  0.50860538  0.54053636  0.27436684    -0.12100
C1261       C  0.49876660  0.55128697  0.28983057    -0.26100
C1262       C  0.50093498  0.55375562  0.32321089     0.36400
C1263       C  0.52837120  0.51995264  0.34416806     0.06000
F1264       F  0.52861663  0.52128426  0.27567640    -0.19900
H1265       H  0.50747611  0.53858657  0.24874897     0.15800
F1266       F  0.49174165  0.56397398  0.33939802    -0.23600
H1267       H  0.51150599  0.54532781  0.36634290     0.17600
C1268       C  0.54191290  0.52884990  0.37137684     0.25600
C1269       C  0.54838161  0.51594723  0.38930539    -0.12100
C1270       C  0.54187366  0.49419968  0.38000563    -0.26200
C1271       C  0.52841165  0.48541579  0.35285627     0.36500
C1272       C  0.52158583  0.49803151  0.33552770    -0.27800
F1273       F  0.54923185  0.55008864  0.38030873    -0.19900
H1274       H  0.55874694  0.52304346  0.41011106     0.15800
F1275       F  0.52105827  0.46419826  0.34367702    -0.23600
H1276       H  0.51052795  0.49038365  0.31553254     0.17600
C1277       C  0.46414118  0.47402536  0.62156120    -0.27700
C1278       C  0.47422763  0.48149074  0.59155980     0.06000
C1279       C  0.47630678  0.50124431  0.57923882     0.25600
C1280       C  0.46879669  0.51323999  0.59663389    -0.12100
C1281       C  0.45950890  0.50628592  0.62710425    -0.26100
C1282       C  0.45707826  0.48638013  0.63936013     0.36400
C1283       C  0.48367674  0.46951127  0.57395385     0.06000
F1284       F  0.48671505  0.50971534  0.55110162    -0.19900
H1285       H  0.47115927  0.52862131  0.58666952     0.15800
F1286       F  0.44783054  0.47880111  0.66839586    -0.23600
H1287       H  0.46190851  0.45867811  0.63142690     0.17600
C1288       C  0.49677580  0.46227477  0.58976663     0.25600
C1289       C  0.50737480  0.45306366  0.57263845    -0.12100
C1290       C  0.50567956  0.45132970  0.53932459    -0.26200
C1291       C  0.49205530  0.45786528  0.52350905     0.36500
C1292       C  0.48095263  0.46655990  0.54075202    -0.27800
F1293       F  0.50058366  0.46539462  0.62152900    -0.19900
H1294       H  0.51797464  0.44841264  0.58537805     0.15800
F1295       F  0.48962682  0.45605959  0.49140236    -0.23600
H1296       H  0.47055752  0.47144469  0.52798300     0.17600
loop_ 
_geom_bond_atom_site_label_1 
_geom_bond_atom_site_label_2 
_geom_bond_distance 
_geom_bond_site_symmetry_2 
_ccdc_geom_bond_type 
O1           Mg3   2.125       .  S
O1           Mg9   2.132       .  S
O1           C36   1.239       .  S
C2           O15   1.235       .  S
C2           O39   1.266       .  A
C2           H41   1.081       .  S
Mg3          O32   2.152       .  S
Mg3          O47   2.369       .  S
Mg3          O43   2.265       .  S
Mg3          O14   2.320       .  S
O4          Mg46   2.155       .  S
O4          Mg29   2.132       .  S
O4           C25   1.235       .  S
O5           C36   1.272       .  A
O5          Mg29   2.299       .  S
C6            O8   1.272       .  A
C6           O20   1.277       .  A
C6         C1290   1.483       .  S
O7           C35   1.272       .  A
O7           Mg9   2.304       .  S
O8          Mg40   2.262       .  S
Mg9          O15   2.105       .  S
Mg9          O23   2.222       .  S
Mg9          O11   2.252       .  S
C10          O48   1.276       .  A
C10          O16   1.274       .  A
C10        C1270   1.482       .  S
O11          C18   1.268       .  A
H12          C25   1.081       .  S
C13          O27   1.236       .  S
C13          O28   1.270       .  A
C13          H38   1.081       .  S
O14          C37   1.274       .  A
O15         Mg29   2.149       .  S
O16         Mg46   2.284       .  S
C17          O30   1.273       .  A
C17          O22   1.277       .  A
C17        C1241   1.479       .  S
C18          O45   1.274       .  A
C18        C1201   1.480       .  S
Mg19         O26   2.173       .  S
Mg19         O27   2.157       .  S
Mg19         O20   2.320       .  S
Mg19         O21   2.289       .  S
Mg19         O48   2.304       .  S
O21          C25   1.268       .  A
O22         Mg29   2.305       .  S
O23          C42   1.266       .  A
O24          C44   1.276       .  A
O24         Mg40   2.306       .  S
O26         Mg40   2.154       .  S
O26          C37   1.237       .  S
O27         Mg46   2.135       .  S
O28         Mg40   2.299       .  S
Mg29         O45   2.285       .  S
O30         Mg46   2.252       .  S
H31          C36   1.081       .  S
O32         Mg40   2.154       .  S
O32          C35   1.238       .  S
H33          C35   1.081       .  S
H34          C37   1.082       .  S
O39         Mg46   2.278       .  S
C42          O47   1.282       .  A
C42        C1181   1.487       .  S
O43          C44   1.273       .  A
C44        C1230   1.488       .  S
O49         Mg51   2.136       .  S
O49         Mg57   2.132       .  S
O49          C84   1.237       .  S
C50          O63   1.236   1_554  S
C50          O87   1.268       .  A
C50          H89   1.081       .  S
Mg51         O80   2.152       .  S
Mg51         O95   2.350       .  S
Mg51         O91   2.258       .  S
Mg51         O62   2.312       .  S
O52         Mg94   2.146       .  S
O52         Mg77   2.132       .  S
O52          C73   1.237   1_554  S
O53          C84   1.271       .  A
O53         Mg77   2.300   1_556  S
C54          O56   1.274       .  A
C54          O68   1.277       .  A
C54        C1141   1.480       .  S
O55          C83   1.273       .  A
O55         Mg57   2.306       .  S
O56         Mg88   2.260       .  S
Mg57         O63   2.114       .  S
Mg57         O71   2.222       .  S
Mg57         O59   2.298       .  S
C58          O96   1.276   1_554  A
C58          O64   1.271       .  A
C58        C1161   1.483       .  S
O59          C66   1.274   1_556  A
H60          C73   1.081   1_554  S
C61          O75   1.236       .  S
C61          O76   1.271       .  A
C61          H86   1.081       .  S
O62          C85   1.273       .  A
O63         Mg77   2.144   1_556  S
O64         Mg94   2.277       .  S
C65          O78   1.271       .  A
C65          O70   1.277       .  A
C65        C1250   1.485       .  S
C66          O93   1.275       .  A
C66        C1110   1.488       .  S
Mg67         O74   2.171       .  S
Mg67         O75   2.143       .  S
Mg67         O68   2.319       .  S
Mg67         O69   2.299       .  S
Mg67         O96   2.302       .  S
O69          C73   1.271       .  A
O70         Mg77   2.317       .  S
O71          C90   1.268       .  A
O72          C92   1.279       .  A
O72         Mg88   2.334       .  S
O74         Mg88   2.158       .  S
O74          C85   1.237       .  S
O75         Mg94   2.141   1_556  S
O76         Mg88   2.303       .  S
Mg77         O93   2.276       .  S
O78         Mg94   2.246       .  S
H79          C84   1.081       .  S
O80         Mg88   2.146       .  S
O80          C83   1.239       .  S
H81          C83   1.081       .  S
H82          C85   1.082       .  S
O87         Mg94   2.282       .  S
C90          O95   1.279       .  A
C90        C1121   1.488       .  S
O91          C92   1.273       .  A
C92        C1221   1.486       .  S
O97         Mg99   2.131       .  S
O97        Mg105   2.136       .  S
O97         C132   1.239       .  S
C98         O111   1.236       .  S
C98         O135   1.268       .  A
C98         H137   1.081       .  S
Mg99        O128   2.162       .  S
Mg99        O143   2.355       .  S
Mg99        O139   2.280       .  S
Mg99        O110   2.312       .  S
O100       Mg142   2.151       .  S
O100       Mg125   2.135       .  S
O100        C121   1.235       .  S
O101        C132   1.272       .  A
O101       Mg125   2.298       .  S
C102        O104   1.271       .  A
C102        O116   1.278       .  A
C102       C1261   1.489       .  S
O103        C131   1.273       .  A
O103       Mg105   2.301       .  S
O104       Mg136   2.263       .  S
Mg105       O111   2.116       .  S
Mg105       O119   2.240       .  S
Mg105       O107   2.261       .  S
C106        O144   1.276       .  A
C106        O112   1.275       .  A
C106       C1170   1.483       .  S
O107        C114   1.270       .  A
H108        C121   1.081       .  S
C109        O123   1.237       .  S
C109        O124   1.272       .  A
C109        H134   1.081       .  S
O110        C133   1.272       .  A
O111       Mg125   2.152       .  S
O112       Mg142   2.293       .  S
C113        O126   1.275       .  A
C113        O118   1.279       .  A
C113       C1061   1.485       .  S
C114        O141   1.276       .  A
C114       C1041   1.481       .  S
Mg115       O122   2.163       .  S
Mg115       O123   2.156       .  S
Mg115       O116   2.324       .  S
Mg115       O117   2.295       .  S
Mg115       O144   2.293       .  S
O117        C121   1.269       .  A
O118       Mg125   2.316       .  S
O119        C138   1.268       .  A
O120        C140   1.275       .  A
O120       Mg136   2.304       .  S
O122       Mg136   2.151       .  S
O122        C133   1.237       .  S
O123       Mg142   2.156       .  S
O124       Mg136   2.306       .  S
Mg125       O141   2.302       .  S
O126       Mg142   2.275       .  S
H127        C132   1.081       .  S
O128       Mg136   2.147       .  S
O128        C131   1.239       .  S
H129        C131   1.081       .  S
H130        C133   1.082       .  S
O135       Mg142   2.283       .  S
C138        O143   1.281       .  A
C138       C1021   1.493       .  S
O139        C140   1.275       .  A
C140       C1090   1.487       .  S
O145       Mg147   2.124       .  S
O145       Mg153   2.139       .  S
O145        C180   1.239       .  S
C146        O159   1.236       .  S
C146        O183   1.268       .  A
C146        H185   1.081       .  S
Mg147       O176   2.148       .  S
Mg147       O191   2.335       .  S
Mg147       O187   2.257       .  S
Mg147       O158   2.317       .  S
O148       Mg190   2.147       .  S
O148       Mg173   2.138       .  S
O148        C169   1.236       .  S
O149        C180   1.272       .  A
O149       Mg173   2.300       .  S
C150        O152   1.267       .  A
C150        O164   1.279       .  A
C150       C1150   1.471       .  S
O151        C179   1.271       .  A
O151       Mg153   2.298       .  S
O152       Mg184   2.230       .  S
Mg153       O159   2.125       .  S
Mg153       O167   2.246       .  S
Mg153       O155   2.249       .  S
C154        O192   1.278       .  A
C154        O160   1.276       .  A
C154       C1281   1.488       .  S
O155        C162   1.268       .  A
H156        C169   1.081       .  S
C157        O171   1.237       .  S
C157        O172   1.271       .  A
C157        H182   1.081       .  S
O158        C181   1.273       .  A
O159       Mg173   2.152       .  S
O160       Mg190   2.297       .  S
C161        O174   1.275       .  A
C161        O166   1.280       .  A
C161       C1081   1.488       .  S
C162        O189   1.276       .  A
C162       C1010   1.482       .  S
Mg163       O170   2.172       .  S
Mg163       O171   2.160       .  S
Mg163       O164   2.339       .  S
Mg163       O165   2.294       .  S
Mg163       O192   2.306       .  S
O165        C169   1.269       .  A
O166       Mg173   2.332       .  S
O167        C186   1.269       .  A
O168        C188   1.274       .  A
O168       Mg184   2.302       .  S
O170       Mg184   2.151       .  S
O170        C181   1.237       .  S
O171       Mg190   2.149       .  S
O172       Mg184   2.303       .  S
Mg173       O189   2.292       .  S
O174       Mg190   2.275       .  S
H175        C180   1.081       .  S
O176       Mg184   2.134       .  S
O176        C179   1.237       .  S
H177        C179   1.081       .  S
H178        C181   1.082       .  S
O183       Mg190   2.287       .  S
C186        O191   1.277       .  A
C186        C990   1.485       .  S
O187        C188   1.271       .  A
C188       C1070   1.484       .  S
O193       Mg195   2.139       .  S
O193       Mg201   2.135       .  S
O193        C228   1.240       .  S
C194        O207   1.236       .  S
C194        O231   1.268       .  A
C194        H233   1.081       .  S
Mg195       O224   2.159       .  S
Mg195       O239   2.345       .  S
Mg195       O235   2.269       .  S
Mg195       O206   2.312       .  S
O196       Mg238   2.146       .  S
O196       Mg221   2.140       .  S
O196        C217   1.236       .  S
O197        C228   1.273       .  A
O197       Mg221   2.304   1_554  S
C198        O200   1.271       .  A
C198        O212   1.280       .  A
C198        C910   1.483       .  S
O199        C227   1.273       .  A
O199       Mg201   2.308       .  S
O200       Mg232   2.246       .  S
Mg201       O207   2.111   1_554  S
Mg201       O215   2.225       .  S
Mg201       O203   2.274       .  S
C202        O240   1.278   1_556  A
C202        O208   1.276       .  A
C202        C961   1.487       .  S
O203        C210   1.271   1_554  A
H204        C217   1.081       .  S
C205        O219   1.235       .  S
C205        O220   1.269       .  A
C205        H230   1.081       .  S
O206        C229   1.273       .  A
O207       Mg221   2.144       .  S
O208       Mg238   2.291       .  S
C209        O222   1.274       .  A
C209        O214   1.281       .  A
C209        C921   1.479       .  S
C210        O237   1.276       .  A
C210        C881   1.481       .  S
Mg211       O218   2.176       .  S
Mg211       O219   2.161       .  S
Mg211       O212   2.340       .  S
Mg211       O213   2.293       .  S
Mg211       O240   2.311       .  S
O213        C217   1.269   1_554  A
O214       Mg221   2.338       .  S
O215        C234   1.267       .  A
O216        C236   1.274       .  A
O216       Mg232   2.302       .  S
O218       Mg232   2.165       .  S
O218        C229   1.237       .  S
O219       Mg238   2.146   1_554  S
O220       Mg232   2.296       .  S
Mg221       O237   2.301       .  S
O222       Mg238   2.267       .  S
H223        C228   1.081       .  S
O224       Mg232   2.147       .  S
O224        C227   1.238       .  S
H225        C227   1.081       .  S
H226        C229   1.082       .  S
O231       Mg238   2.286       .  S
C234        O239   1.278       .  A
C234       C1050   1.481       .  S
O235        C236   1.272       .  A
C236        C941   1.478       .  S
O241       Mg243   2.132       .  S
O241       Mg249   2.134       .  S
O241        C276   1.239       .  S
C242        O255   1.235       .  S
C242        O279   1.267       .  A
C242        H281   1.081       .  S
Mg243       O272   2.153       .  S
Mg243       O287   2.338       .  S
Mg243       O283   2.255       .  S
Mg243       O254   2.311       .  S
O244       Mg286   2.148       .  S
O244       Mg269   2.127       .  S
O244        C265   1.235       .  S
O245        C276   1.272       .  A
O245       Mg269   2.302       .  S
C246        O248   1.272       .  A
C246        O260   1.278       .  A
C246        C841   1.489       .  S
O247        C275   1.273       .  A
O247       Mg249   2.304       .  S
O248       Mg280   2.255       .  S
Mg249       O255   2.104       .  S
Mg249       O263   2.215       .  S
Mg249       O251   2.265       .  S
C250        O288   1.277       .  A
C250        O256   1.274       .  A
C250        C861   1.489       .  S
O251        C258   1.270       .  A
H252        C265   1.081       .  S
C253        O267   1.236       .  S
C253        O268   1.271       .  A
C253        H278   1.081       .  S
O254        C277   1.272       .  A
O255       Mg269   2.144       .  S
O256       Mg286   2.285       .  S
C257        O270   1.277       .  A
C257        O262   1.278       .  A
C257        C950   1.490       .  S
C258        O285   1.274       .  A
C258        C821   1.484       .  S
Mg259       O266   2.169       .  S
Mg259       O267   2.161       .  S
Mg259       O260   2.321       .  S
Mg259       O261   2.290       .  S
Mg259       O288   2.296       .  S
O261        C265   1.268       .  A
O262       Mg269   2.311       .  S
O263        C282   1.266       .  A
O264        C284   1.278       .  A
O264       Mg280   2.327       .  S
O266       Mg280   2.160       .  S
O266        C277   1.236       .  S
O267       Mg286   2.157       .  S
O268       Mg280   2.304       .  S
Mg269       O285   2.286       .  S
O270       Mg286   2.284       .  S
H271        C276   1.081       .  S
O272       Mg280   2.144       .  S
O272        C275   1.239       .  S
H273        C275   1.081       .  S
H274        C277   1.082       .  S
O279       Mg286   2.280       .  S
C282        O287   1.277       .  A
C282       C1001   1.482       .  S
O283        C284   1.271       .  A
C284        C930   1.490       .  S
O289       Mg291   2.130       .  S
O289       Mg297   2.134       .  S
O289        C324   1.238       .  S
C290        O303   1.235       .  S
C290        O327   1.267       .  A
C290        H329   1.081       .  S
Mg291       O320   2.147       .  S
Mg291       O335   2.324       .  S
Mg291       O331   2.266       .  S
Mg291       O302   2.315       .  S
O292       Mg334   2.150       .  S
O292       Mg317   2.136       .  S
O292        C313   1.236       .  S
O293        C324   1.272       .  A
O293       Mg317   2.299       .  S
C294        O296   1.268       .  A
C294        O308   1.279       .  A
C294        C870   1.474       .  S
O295        C323   1.272       .  A
O295       Mg297   2.304       .  S
O296       Mg328   2.228       .  S
Mg297       O303   2.107       .  S
Mg297       O311   2.215       .  S
Mg297       O299   2.276       .  S
C298        O336   1.277       .  A
C298        O304   1.276       .  A
C298        C901   1.488       .  S
O299        C306   1.272       .  A
H300        C313   1.081       .  S
C301        O315   1.237       .  S
C301        O316   1.272       .  A
C301        H326   1.081       .  S
O302        C325   1.273       .  A
O303       Mg317   2.144       .  S
O304       Mg334   2.287       .  S
C305        O318   1.277       .  A
C305        O310   1.279       .  A
C305        C810   1.493       .  S
C306        O333   1.275       .  A
C306        C761   1.487       .  S
Mg307       O314   2.170       .  S
Mg307       O315   2.159       .  S
Mg307       O308   2.337       .  S
Mg307       O309   2.294       .  S
Mg307       O336   2.305       .  S
O309        C313   1.269       .  A
O310       Mg317   2.321       .  S
O311        C330   1.267       .  A
O312        C332   1.275       .  A
O312       Mg328   2.311       .  S
O314       Mg328   2.150       .  S
O314        C325   1.237       .  S
O315       Mg334   2.157       .  S
O316       Mg328   2.307       .  S
Mg317       O333   2.291       .  S
O318       Mg334   2.289       .  S
H319        C324   1.081       .  S
O320       Mg328   2.130       .  S
O320        C323   1.239       .  S
H321        C323   1.081       .  S
H322        C325   1.082       .  S
O327       Mg334   2.280       .  S
C330        O335   1.276       .  A
C330       C1210   1.473       .  S
O331        C332   1.271       .  A
C332        C781   1.488       .  S
O337       Mg339   2.141       .  S
O337       Mg345   2.137       .  S
O337        C372   1.238       .  S
C338        O351   1.235       .  S
C338        O375   1.267       .  A
C338        H377   1.081       .  S
Mg339       O368   2.160       .  S
Mg339       O383   2.362       .  S
Mg339       O379   2.281       .  S
Mg339       O350   2.312       .  S
O340       Mg382   2.154       .  S
O340       Mg365   2.124       .  S
O340        C361   1.236       .  S
O341        C372   1.271       .  A
O341       Mg365   2.297       .  S
C342        O344   1.273       .  A
C342        O356   1.279       .  A
C342        C970   1.488       .  S
O343        C371   1.273       .  A
O343       Mg345   2.303       .  S
O344       Mg376   2.264       .  S
Mg345       O351   2.098       .  S
Mg345       O359   2.195       .  S
Mg345       O347   2.269       .  S
C346        O384   1.276       .  A
C346        O352   1.274       .  A
C346        C850   1.483       .  S
O347        C354   1.270       .  A
H348        C361   1.081       .  S
C349        O363   1.237       .  S
C349        O364   1.272       .  A
C349        H374   1.081       .  S
O350        C373   1.272       .  A
O351       Mg365   2.149       .  S
O352       Mg382   2.287       .  S
C353        O366   1.276       .  A
C353        O358   1.277       .  A
C353        C790   1.482       .  S
C354        O381   1.275       .  A
C354        C750   1.481       .  S
Mg355       O362   2.163       .  S
Mg355       O363   2.157       .  S
Mg355       O356   2.332       .  S
Mg355       O357   2.291       .  S
Mg355       O384   2.287       .  S
O357        C361   1.269       .  A
O358       Mg365   2.307       .  S
O359        C378   1.264       .  A
O360        C380   1.277       .  A
O360       Mg376   2.321       .  S
O362       Mg376   2.150       .  S
O362        C373   1.236       .  S
O363       Mg382   2.163       .  S
O364       Mg376   2.309       .  S
Mg365       O381   2.288       .  S
O366       Mg382   2.284       .  S
H367        C372   1.081       .  S
O368       Mg376   2.146       .  S
O368        C371   1.239       .  S
H369        C371   1.081       .  S
H370        C373   1.082       .  S
O375       Mg382   2.277       .  S
C378        O383   1.282       .  A
C378       C1130   1.485       .  S
O379        C380   1.276       .  A
C380        C801   1.486       .  S
O385       Mg387   2.131       .  S
O385       Mg393   2.132       .  S
O385        C420   1.238       .  S
C386        O399   1.235       .  S
C386        O423   1.267       .  A
C386        H425   1.081       .  S
Mg387       O416   2.146       .  S
Mg387       O431   2.349       .  S
Mg387       O427   2.269       .  S
Mg387       O398   2.323       .  S
O388       Mg430   2.153       .  S
O388       Mg413   2.137       .  S
O388        C409   1.234       .  S
O389        C420   1.272       .  A
O389       Mg413   2.299       .  S
C390        O392   1.271       .  A
C390        O404   1.279       .  A
C390        C721   1.489       .  S
O391        C419   1.274       .  A
O391       Mg393   2.308       .  S
O392       Mg424   2.256       .  S
Mg393       O399   2.104       .  S
Mg393       O407   2.230       .  S
Mg393       O395   2.282       .  S
C394        O432   1.279       .  A
C394        O400   1.272       .  A
C394        C710   1.490       .  S
O395        C402   1.273       .  A
H396        C409   1.081       .  S
C397        O411   1.237       .  S
C397        O412   1.271       .  A
C397        H422   1.081       .  S
O398        C421   1.274       .  A
O399       Mg413   2.141       .  S
O400       Mg430   2.275       .  S
C401        O414   1.274       .  A
C401        O406   1.278       .  A
C401        C681   1.481       .  S
C402        O429   1.276       .  A
C402        C770   1.485       .  S
Mg403       O410   2.178       .  S
Mg403       O411   2.164       .  S
Mg403       O404   2.323       .  S
Mg403       O405   2.289       .  S
Mg403       O432   2.322       .  S
O405        C409   1.268       .  A
O406       Mg413   2.311       .  S
O407        C426   1.268       .  A
O408        C428   1.277       .  A
O408       Mg424   2.326       .  S
O410       Mg424   2.158       .  S
O410        C421   1.238       .  S
O411       Mg430   2.153       .  S
O412       Mg424   2.305       .  S
Mg413       O429   2.297       .  S
O414       Mg430   2.263       .  S
H415        C420   1.081       .  S
O416       Mg424   2.150       .  S
O416        C419   1.239       .  S
H417        C419   1.081       .  S
H418        C421   1.082       .  S
O423       Mg430   2.278       .  S
C426        O431   1.279       .  A
C426       C1101   1.491       .  S
O427        C428   1.272       .  A
C428        C661   1.490   1_554  S
O433       Mg435   2.137       .  S
O433       Mg441   2.138       .  S
O433        C468   1.238       .  S
C434        O447   1.235       .  S
C434        O471   1.267       .  A
C434        H473   1.081       .  S
Mg435       O464   2.164       .  S
Mg435       O479   2.358       .  S
Mg435       O475   2.269       .  S
Mg435       O446   2.312       .  S
O436       Mg478   2.158       .  S
O436       Mg461   2.139       .  S
O436        C457   1.236       .  S
O437        C468   1.272       .  A
O437       Mg461   2.301       .  S
C438        O440   1.271       .  A
C438        O452   1.278       .  A
C438        C650   1.475       .  S
O439        C467   1.271       .  A
O439       Mg441   2.298       .  S
O440       Mg472   2.254       .  S
Mg441       O447   2.114       .  S
Mg441       O455   2.229       .  S
Mg441       O443   2.267       .  S
C442        O480   1.276       .  A
C442        O448   1.274       .  A
C442        C621   1.480       .  S
O443        C450   1.271       .  A
H444        C457   1.081       .  S
C445        O459   1.236       .  S
C445        O460   1.271       .  A
C445        H470   1.081       .  S
O446        C469   1.272       .  A
O447       Mg461   2.152       .  S
O448       Mg478   2.283       .  S
C449        O462   1.276       .  A
C449        O454   1.280       .  A
C449        C670   1.491       .  S
C450        O477   1.276       .  A
C450        C741   1.484       .  S
Mg451       O458   2.166       .  S
Mg451       O459   2.161       .  S
Mg451       O452   2.338       .  S
Mg451       O453   2.292       .  S
Mg451       O480   2.297       .  S
O453        C457   1.270       .  A
O454       Mg461   2.328       .  S
O455        C474   1.268       .  A
O456        C476   1.274       .  A
O456       Mg472   2.293       .  S
O458       Mg472   2.151       .  S
O458        C469   1.237       .  S
O459       Mg478   2.151       .  S
O460       Mg472   2.301       .  S
Mg461       O477   2.298       .  S
O462       Mg478   2.279       .  S
H463        C468   1.081       .  S
O464       Mg472   2.144       .  S
O464        C467   1.237       .  S
H465        C467   1.081       .  S
H466        C469   1.082       .  S
O471       Mg478   2.280       .  S
C474        O479   1.281       .  A
C474       C1190   1.492       .  S
O475        C476   1.273       .  A
C476        C690   1.476       .  S
O481       Mg483   2.131       .  S
O481       Mg489   2.135       .  S
O481        C516   1.239       .  S
C482        O495   1.237       .  S
C482        O519   1.270       .  A
C482        H521   1.081       .  S
Mg483       O512   2.158       .  S
Mg483       O527   2.346       .  S
Mg483       O523   2.266       .  S
Mg483       O494   2.308       .  S
O484       Mg526   2.142       .  S
O484       Mg509   2.145       .  S
O484        C505   1.236       .  S
O485        C516   1.273       .  A
O485       Mg509   2.302       .  S
C486        O488   1.271       .  A
C486        O500   1.280       .  A
C486        C701   1.489       .  S
O487        C515   1.272       .  A
O487       Mg489   2.300       .  S
O488       Mg520   2.251       .  S
Mg489       O495   2.129       .  S
Mg489       O503   2.253       .  S
Mg489       O491   2.268       .  S
C490        O528   1.277       .  A
C490        O496   1.277       .  A
C490        C641   1.493       .  S
O491        C498   1.271       .  A
H492        C505   1.081       .  S
C493        O507   1.237       .  S
C493        O508   1.271       .  A
C493        H518   1.081       .  S
O494        C517   1.272       .  A
O495       Mg509   2.149       .  S
O496       Mg526   2.313       .  S
C497        O510   1.275       .  A
C497        O502   1.280       .  A
C497        C590   1.486       .  S
C498        O525   1.276       .  A
C498        C830   1.487       .  S
Mg499       O506   2.161       .  S
Mg499       O507   2.157       .  S
Mg499       O500   2.345       .  S
Mg499       O501   2.298       .  S
Mg499       O528   2.287       .  S
O501        C505   1.270       .  A
O502       Mg509   2.336       .  S
O503        C522   1.270       .  A
O504        C524   1.275       .  A
O504       Mg520   2.308       .  S
O506       Mg520   2.154       .  S
O506        C517   1.237       .  S
O507       Mg526   2.155       .  S
O508       Mg520   2.304       .  S
Mg509       O525   2.295       .  S
O510       Mg526   2.273       .  S
H511        C516   1.081       .  S
O512       Mg520   2.143       .  S
O512        C515   1.238       .  S
H513        C515   1.081       .  S
H514        C517   1.082       .  S
O519       Mg526   2.295       .  S
C522        O527   1.279       .  A
C522       C1030   1.488       .  S
O523        C524   1.273       .  A
C524        C601   1.484       .  S
O529       Mg531   2.127       .  S
O529       Mg537   2.137       .  S
O529        C564   1.238       .  S
C530        O543   1.236       .  S
C530        O567   1.269       .  A
C530        H569   1.081       .  S
Mg531       O560   2.157       .  S
Mg531       O575   2.342       .  S
Mg531       O571   2.251       .  S
Mg531       O542   2.311       .  S
O532       Mg574   2.147       .  S
O532       Mg557   2.132       .  S
O532        C553   1.235       .  S
O533        C564   1.271       .  A
O533       Mg557   2.294       .  S
C534        O536   1.273       .  A
C534        O548   1.278       .  A
C534        C630   1.489       .  S
O535        C563   1.273       .  A
O535       Mg537   2.305       .  S
O536       Mg568   2.264       .  S
Mg537       O543   2.111       .  S
Mg537       O551   2.230       .  S
Mg537       O539   2.274       .  S
C538        O576   1.276       .  A
C538        O544   1.276       .  A
C538        C730   1.486       .  S
O539        C546   1.271       .  A
H540        C553   1.081       .  S
C541        O555   1.238       .  S
C541        O556   1.273       .  A
C541        H566   1.081       .  S
O542        C565   1.271       .  A
O543       Mg557   2.151       .  S
O544       Mg574   2.300       .  S
C545        O558   1.277       .  A
C545        O550   1.277   1_554  A
C545        C610   1.488       .  S
C546        O573   1.275       .  A
C546        C890   1.489       .  S
Mg547       O554   2.163       .  S
Mg547       O555   2.157       .  S
Mg547       O548   2.324       .  S
Mg547       O549   2.292       .  S
Mg547       O576   2.289       .  S
O549        C553   1.269       .  A
O550       Mg557   2.304       .  S
O551        C570   1.267       .  A
O552        C572   1.279       .  A
O552       Mg568   2.337       .  S
O554       Mg568   2.150       .  S
O554        C565   1.236       .  S
O555       Mg574   2.165       .  S
O556       Mg568   2.311       .  S
Mg557       O573   2.295       .  S
O558       Mg574   2.294   1_554  S
H559        C564   1.081       .  S
O560       Mg568   2.150       .  S
O560        C563   1.239       .  S
H561        C563   1.081       .  S
H562        C565   1.082       .  S
O567       Mg574   2.285       .  S
C570        O575   1.279       .  A
C570        C981   1.490       .  S
O571        C572   1.272       .  A
C572        C581   1.488       .  S
C577        H587   1.083       .  S
C577        C578   1.404       .  A
C577        C582   1.399       .  A
C578        C583   1.490       .  S
C578        C579   1.409       .  A
C579        C580   1.402       .  A
C579        F584   1.357       .  S
C580        H585   1.083       .  S
C580        C581   1.406       .  A
C581        C582   1.411       .  A
C582        F586   1.358       .  S
C583        C588   1.410       .  A
C583        C592   1.404       .  A
C588        C589   1.403       .  A
C588        F593   1.358       .  S
C589        H594   1.083       .  S
C589        C590   1.406       .  A
C590        C591   1.409       .  A
C591        C592   1.399       .  A
C591        F595   1.357       .  S
C592        H596   1.083       .  S
C597        H607   1.083       .  S
C597        C598   1.406       .  A
C597        C602   1.399       .  A
C598        C603   1.493       .  S
C598        C599   1.410       .  A
C599        C600   1.401       .  A
C599        F604   1.357       .  S
C600        H605   1.083       .  S
C600        C601   1.405       .  A
C601        C602   1.408       .  A
C602        F606   1.357       .  S
C603        C608   1.410       .  A
C603        C612   1.406       .  A
C608        C609   1.401       .  A
C608        F613   1.357       .  S
C609        H614   1.083       .  S
C609        C610   1.406       .  A
C610        C611   1.410       .  A
C611        C612   1.400       .  A
C611        F615   1.358       .  S
C612        H616   1.083       .  S
C617        H627   1.082       .  S
C617        C618   1.405       .  A
C617        C622   1.394       .  A
C618        C623   1.495   1_545  S
C618        C619   1.414       .  A
C619        C620   1.405       .  A
C619        F624   1.357       .  S
C620        H625   1.083       .  S
C620        C621   1.404       .  A
C621        C622   1.407       .  A
C622        F626   1.358       .  S
C623        C628   1.412       .  A
C623        C632   1.405       .  A
C628        C629   1.401       .  A
C628        F633   1.358   1_565  S
C629        H634   1.083       .  S
C629        C630   1.406       .  A
C630        C631   1.411       .  A
C631        C632   1.399       .  A
C631        F635   1.357       .  S
C632        H636   1.082       .  S
C637        H647   1.082       .  S
C637        C638   1.405       .  A
C637        C642   1.400       .  A
C638        C643   1.495   1_565  S
C638        C639   1.411       .  A
C639        C640   1.401       .  A
C639        F644   1.358   1_565  S
C640        H645   1.083       .  S
C640        C641   1.407       .  A
C641        C642   1.412       .  A
C642        F646   1.357       .  S
C643        C648   1.413       .  A
C643        C652   1.406       .  A
C648        C649   1.405       .  A
C648        F653   1.357       .  S
C649        H654   1.083       .  S
C649        C650   1.402       .  A
C650        C651   1.404       .  A
C651        C652   1.396       .  A
C651        F655   1.358       .  S
C652        H656   1.083       .  S
C657        H667   1.083       .  S
C657        C658   1.406       .  A
C657        C662   1.401       .  A
C658        C663   1.492       .  S
C658        C659   1.408       .  A
C659        C660   1.401       .  A
C659        F664   1.357       .  S
C660        H665   1.083       .  S
C660        C661   1.407       .  A
C661        C662   1.410       .  A
C662        F666   1.357       .  S
C663        C668   1.408       .  A
C663        C672   1.405       .  A
C668        C669   1.402       .  A
C668        F673   1.357       .  S
C669        H674   1.083       .  S
C669        C670   1.407       .  A
C670        C671   1.411       .  A
C671        C672   1.401       .  A
C671        F675   1.357       .  S
C672        H676   1.083       .  S
C677        H687   1.083       .  S
C677        C678   1.403       .  A
C677        C682   1.397       .  A
C678        C683   1.480       .  S
C678        C679   1.405       .  A
C679        C680   1.398       .  A
C679        F684   1.358       .  S
C680        H685   1.083       .  S
C680        C681   1.407       .  A
C681        C682   1.408       .  A
C682        F686   1.357       .  S
C683        C688   1.407       .  A
C683        C692   1.403       .  A
C688        C689   1.399       .  A
C688        F693   1.357       .  S
C689        H694   1.083       .  S
C689        C690   1.404       .  A
C690        C691   1.407       .  A
C691        C692   1.397       .  A
C691        F695   1.358       .  S
C692        H696   1.083       .  S
C697        H707   1.082       .  S
C697        C698   1.406       .  A
C697        C702   1.399       .  A
C698        C703   1.501   1_565  S
C698        C699   1.415       .  A
C699        C700   1.404       .  A
C699        F704   1.357   1_565  S
C700        H705   1.083       .  S
C700        C701   1.404       .  A
C701        C702   1.411       .  A
C702        F706   1.358       .  S
C703        C708   1.415       .  A
C703        C712   1.404       .  A
C708        C709   1.407       .  A
C708        F713   1.357   1_545  S
C709        H714   1.083       .  S
C709        C710   1.404       .  A
C710        C711   1.412       .  A
C711        C712   1.396       .  A
C711        F715   1.358       .  S
C712        H716   1.082       .  S
C717        H727   1.083   1_554  S
C717        C718   1.404       .  A
C717        C722   1.402       .  A
C718        C723   1.488   1_544  S
C718        C719   1.408       .  A
C719        C720   1.397       .  A
C719        F724   1.357   1_545  S
C720        H725   1.083       .  S
C720        C721   1.406       .  A
C721        C722   1.413       .  A
C722        F726   1.358       .  S
C723        C728   1.406   1_556  A
C723        C732   1.406       .  A
C728        C729   1.397   1_554  A
C728        F733   1.357       .  S
C729        H734   1.083       .  S
C729        C730   1.407       .  A
C730        C731   1.409       .  A
C731        C732   1.402       .  A
C731        F735   1.357       .  S
C732        H736   1.083   1_565  S
C737        H747   1.084       .  S
C737        C738   1.400       .  A
C737        C742   1.395       .  A
C738        C743   1.478       .  S
C738        C739   1.406       .  A
C739        C740   1.402       .  A
C739        F744   1.357       .  S
C740        H745   1.083       .  S
C740        C741   1.406       .  A
C741        C742   1.413       .  A
C742        F746   1.358       .  S
C743        C748   1.406       .  A
C743        C752   1.401       .  A
C748        C749   1.400       .  A
C748        F753   1.357       .  S
C749        H754   1.083       .  S
C749        C750   1.405       .  A
C750        C751   1.411       .  A
C751        C752   1.396       .  A
C751        F755   1.358       .  S
C752        H756   1.084       .  S
C757        H767   1.083       .  S
C757        C758   1.403       .  A
C757        C762   1.401       .  A
C758        C763   1.477       .  S
C758        C759   1.401       .  A
C759        C760   1.398       .  A
C759        F764   1.358       .  S
C760        H765   1.083       .  S
C760        C761   1.410       .  A
C761        C762   1.410       .  A
C762        F766   1.357       .  S
C763        C768   1.400       .  A
C763        C772   1.405       .  A
C768        C769   1.395       .  A
C768        F773   1.358       .  S
C769        H774   1.083       .  S
C769        C770   1.409       .  A
C770        C771   1.409       .  A
C771        C772   1.403       .  A
C771        F775   1.357       .  S
C772        H776   1.083       .  S
C777        H787   1.083       .  S
C777        C778   1.404       .  A
C777        C782   1.401       .  A
C778        C783   1.484       .  S
C778        C779   1.405       .  A
C779        C780   1.398       .  A
C779        F784   1.358       .  S
C780        H785   1.083       .  S
C780        C781   1.408       .  A
C781        C782   1.412       .  A
C782        F786   1.357       .  S
C783        C788   1.407       .  A
C783        C792   1.404       .  A
C788        C789   1.399       .  A
C788        F793   1.358       .  S
C789        H794   1.083       .  S
C789        C790   1.405       .  A
C790        C791   1.409       .  A
C791        C792   1.401       .  A
C791        F795   1.358       .  S
C792        H796   1.083       .  S
C797        H807   1.082       .  S
C797        C798   1.408       .  A
C797        C802   1.401   1_554  A
C798        C803   1.499       .  S
C798        C799   1.412       .  A
C799        C800   1.403   1_554  A
C799        F804   1.357       .  S
C800        H805   1.083       .  S
C800        C801   1.405       .  A
C801        C802   1.407       .  A
C802        F806   1.357       .  S
C803        C808   1.411       .  A
C803        C812   1.408       .  A
C808        C809   1.401       .  A
C808        F813   1.357       .  S
C809        H814   1.083       .  S
C809        C810   1.407       .  A
C810        C811   1.411       .  A
C811        C812   1.402       .  A
C811        F815   1.357       .  S
C812        H816   1.082       .  S
C817        H827   1.084       .  S
C817        C818   1.399       .  A
C817        C822   1.395       .  A
C818        C823   1.478       .  S
C818        C819   1.407       .  A
C819        C820   1.400       .  A
C819        F824   1.357       .  S
C820        H825   1.083       .  S
C820        C821   1.406       .  A
C821        C822   1.414       .  A
C822        F826   1.358       .  S
C823        C828   1.407       .  A
C823        C832   1.399       .  A
C828        C829   1.401       .  A
C828        F833   1.357       .  S
C829        H834   1.083       .  S
C829        C830   1.407       .  A
C830        C831   1.414       .  A
C831        C832   1.394       .  A
C831        F835   1.358       .  S
C832        H836   1.084       .  S
C837        H847   1.083   1_455  S
C837        C838   1.406       .  A
C837        C842   1.399       .  A
C838        C843   1.488   1_455  S
C838        C839   1.406       .  A
C839        C840   1.399       .  A
C839        F844   1.357       .  S
C840        H845   1.083       .  S
C840        C841   1.409       .  A
C841        C842   1.410       .  A
C842        F846   1.357       .  S
C843        C848   1.410       .  A
C843        C852   1.404       .  A
C848        C849   1.399       .  A
C848        F853   1.357   1_655  S
C849        H854   1.083       .  S
C849        C850   1.404       .  A
C850        C851   1.410       .  A
C851        C852   1.398       .  A
C851        F855   1.358       .  S
C852        H856   1.083       .  S
C857        H867   1.082       .  S
C857        C858   1.404       .  A
C857        C862   1.394       .  A
C858        C863   1.493   1_455  S
C858        C859   1.412       .  A
C859        C860   1.402       .  A
C859        F864   1.357   1_455  S
C860        H865   1.083       .  S
C860        C861   1.406       .  A
C861        C862   1.412       .  A
C862        F866   1.358       .  S
C863        C868   1.414       .  A
C863        C872   1.405       .  A
C868        C869   1.401       .  A
C868        F873   1.357   1_655  S
C869        H874   1.083       .  S
C869        C870   1.400       .  A
C870        C871   1.407       .  A
C871        C872   1.395       .  A
C871        F875   1.358       .  S
C872        H876   1.082       .  S
C877        H887   1.084       .  S
C877        C878   1.402       .  A
C877        C882   1.397       .  A
C878        C883   1.482       .  S
C878        C879   1.406       .  A
C879        C880   1.403       .  A
C879        F884   1.357       .  S
C880        H885   1.083       .  S
C880        C881   1.406       .  A
C881        C882   1.408       .  A
C882        F886   1.358       .  S
C883        C888   1.406       .  A
C883        C892   1.400       .  A
C888        C889   1.404       .  A
C888        F893   1.357   1_556  S
C889        H894   1.083       .  S
C889        C890   1.409       .  A
C890        C891   1.414       .  A
C891        C892   1.395       .  A
C891        F895   1.358       .  S
C892        H896   1.084       .  S
C897        H907   1.082   1_655  S
C897        C898   1.413       .  A
C897        C902   1.407       .  A
C898        C903   1.501   1_655  S
C898        C899   1.409       .  A
C899        C900   1.393       .  A
C899        F904   1.357       .  S
C900        H905   1.083       .  S
C900        C901   1.405       .  A
C901        C902   1.408       .  A
C902        F906   1.357       .  S
C903        C908   1.411       .  A
C903        C912   1.412       .  A
C908        C909   1.399       .  A
C908        F913   1.357       .  S
C909        H914   1.084       .  S
C909        C910   1.406       .  A
C910        C911   1.404       .  A
C911        C912   1.402       .  A
C911        F915   1.357       .  S
C912        H916   1.082   1_455  S
C917        H927   1.083       .  S
C917        C918   1.406       .  A
C917        C922   1.399       .  A
C918        C923   1.490       .  S
C918        C919   1.410       .  A
C919        C920   1.401       .  A
C919        F924   1.357       .  S
C920        H925   1.083       .  S
C920        C921   1.403       .  A
C921        C922   1.406       .  A
C922        F926   1.358       .  S
C923        C928   1.409       .  A
C923        C932   1.404       .  A
C928        C929   1.401       .  A
C928        F933   1.357       .  S
C929        H934   1.083       .  S
C929        C930   1.407       .  A
C930        C931   1.411       .  A
C931        C932   1.398       .  A
C931        F935   1.357       .  S
C932        H936   1.083       .  S
C937        H947   1.083       .  S
C937        C938   1.407       .  A
C937        C942   1.400       .  A
C938        C943   1.491       .  S
C938        C939   1.410       .  A
C939        C940   1.399       .  A
C939        F944   1.357       .  S
C940        H945   1.083       .  S
C940        C941   1.402       .  A
C941        C942   1.407       .  A
C942        F946   1.358       .  S
C943        C948   1.408       .  A
C943        C952   1.405       .  A
C948        C949   1.400       .  A
C948        F953   1.357       .  S
C949        H954   1.083       .  S
C949        C950   1.408       .  A
C950        C951   1.411       .  A
C951        C952   1.399       .  A
C951        F955   1.357       .  S
C952        H956   1.083       .  S
C957        H967   1.083       .  S
C957        C958   1.411       .  A
C957        C962   1.406       .  A
C958        C963   1.497   1_455  S
C958        C959   1.409       .  A
C959        C960   1.397       .  A
C959        F964   1.358       .  S
C960        H965   1.083       .  S
C960        C961   1.406       .  A
C961        C962   1.407       .  A
C962        F966   1.357   1_556  S
C963        C968   1.409       .  A
C963        C972   1.409       .  A
C968        C969   1.400       .  A
C968        F973   1.357       .  S
C969        H974   1.083       .  S
C969        C970   1.407       .  A
C970        C971   1.407       .  A
C971        C972   1.403       .  A
C971        F975   1.357       .  S
C972        H976   1.083   1_655  S
C977        H987   1.083       .  S
C977        C978   1.400       .  A
C977        C982   1.397       .  A
C978        C983   1.485       .  S
C978        C979   1.408       .  A
C979        C980   1.402       .  A
C979        F984   1.357       .  S
C980        H985   1.083       .  S
C980        C981   1.406       .  A
C981        C982   1.415       .  A
C982        F986   1.358       .  S
C983        C988   1.409       .  A
C983        C992   1.402       .  A
C988        C989   1.402       .  A
C988        F993   1.357       .  S
C989        H994   1.083       .  S
C989        C990   1.405       .  A
C990        C991   1.411       .  A
C991        C992   1.397       .  A
C991        F995   1.357       .  S
C992        H996   1.083       .  S
C997       H1007   1.084       .  S
C997        C998   1.396       .  A
C997       C1002   1.390       .  A
C998       C1003   1.469       .  S
C998        C999   1.404       .  A
C999       C1000   1.403       .  A
C999       F1004   1.357       .  S
C1000      H1005   1.083       .  S
C1000      C1001   1.408       .  A
C1001      C1002   1.413       .  A
C1002      F1006   1.358       .  S
C1003      C1008   1.403       .  A
C1003      C1012   1.397       .  A
C1008      C1009   1.398       .  A
C1008      F1013   1.357       .  S
C1009      H1014   1.083       .  S
C1009      C1010   1.405       .  A
C1010      C1011   1.415       .  A
C1011      C1012   1.396       .  A
C1011      F1015   1.358       .  S
C1012      H1016   1.084       .  S
C1017      H1027   1.083       .  S
C1017      C1018   1.401       .  A
C1017      C1022   1.400       .  A
C1018      C1023   1.486       .  S
C1018      C1019   1.407       .  A
C1019      C1020   1.403       .  A
C1019      F1024   1.357       .  S
C1020      H1025   1.083       .  S
C1020      C1021   1.406       .  A
C1021      C1022   1.416       .  A
C1022      F1026   1.358       .  S
C1023      C1028   1.408       .  A
C1023      C1032   1.402       .  A
C1028      C1029   1.404       .  A
C1028      F1033   1.357       .  S
C1029      H1034   1.083       .  S
C1029      C1030   1.407       .  A
C1030      C1031   1.411       .  A
C1031      C1032   1.398       .  A
C1031      F1035   1.357       .  S
C1032      H1036   1.083       .  S
C1037      H1047   1.083       .  S
C1037      C1038   1.398       .  A
C1037      C1042   1.395       .  A
C1038      C1043   1.480       .  S
C1038      C1039   1.409       .  A
C1039      C1040   1.402       .  A
C1039      F1044   1.357       .  S
C1040      H1045   1.083       .  S
C1040      C1041   1.404       .  A
C1041      C1042   1.413       .  A
C1042      F1046   1.358       .  S
C1043      C1048   1.408       .  A
C1043      C1052   1.400       .  A
C1048      C1049   1.403       .  A
C1048      F1053   1.357       .  S
C1049      H1054   1.083       .  S
C1049      C1050   1.405       .  A
C1050      C1051   1.411       .  A
C1051      C1052   1.394       .  A
C1051      F1055   1.358       .  S
C1052      H1056   1.084       .  S
C1057      H1067   1.083       .  S
C1057      C1058   1.404       .  A
C1057      C1062   1.398   1_556  A
C1058      C1063   1.486       .  S
C1058      C1059   1.407       .  A
C1059      C1060   1.399   1_556  A
C1059      F1064   1.357       .  S
C1060      H1065   1.083       .  S
C1060      C1061   1.406       .  A
C1061      C1062   1.410       .  A
C1062      F1066   1.357       .  S
C1063      C1068   1.407       .  A
C1063      C1072   1.404       .  A
C1068      C1069   1.398       .  A
C1068      F1073   1.357       .  S
C1069      H1074   1.083       .  S
C1069      C1070   1.406       .  A
C1070      C1071   1.410       .  A
C1071      C1072   1.398       .  A
C1071      F1075   1.358       .  S
C1072      H1076   1.083       .  S
C1077      H1087   1.083       .  S
C1077      C1078   1.408       .  A
C1077      C1082   1.401       .  A
C1078      C1083   1.496       .  S
C1078      C1079   1.410       .  A
C1079      C1080   1.400       .  A
C1079      F1084   1.357       .  S
C1080      H1085   1.083       .  S
C1080      C1081   1.407       .  A
C1081      C1082   1.408       .  A
C1082      F1086   1.357       .  S
C1083      C1088   1.411       .  A
C1083      C1092   1.406       .  A
C1088      C1089   1.401       .  A
C1088      F1093   1.357       .  S
C1089      H1094   1.083       .  S
C1089      C1090   1.405       .  A
C1090      C1091   1.410       .  A
C1091      C1092   1.400       .  A
C1091      F1095   1.357       .  S
C1092      H1096   1.082       .  S
C1097      H1107   1.083       .  S
C1097      C1098   1.401       .  A
C1097      C1102   1.394       .  A
C1098      C1103   1.488       .  S
C1098      C1099   1.409       .  A
C1099      C1100   1.404       .  A
C1099      F1104   1.357       .  S
C1100      H1105   1.083       .  S
C1100      C1101   1.407       .  A
C1101      C1102   1.414       .  A
C1102      F1106   1.358       .  S
C1103      C1108   1.409       .  A
C1103      C1112   1.403       .  A
C1108      C1109   1.398       .  A
C1108      F1113   1.358       .  S
C1109      H1114   1.083       .  S
C1109      C1110   1.406       .  A
C1110      C1111   1.413       .  A
C1111      C1112   1.400       .  A
C1111      F1115   1.358   1_554  S
C1112      H1116   1.083   1_554  S
C1117      H1127   1.083       .  S
C1117      C1118   1.409       .  A
C1117      C1122   1.406       .  A
C1118      C1123   1.486       .  S
C1118      C1119   1.402       .  A
C1119      C1120   1.391       .  A
C1119      F1124   1.358       .  S
C1120      H1125   1.083       .  S
C1120      C1121   1.408       .  A
C1121      C1122   1.409       .  A
C1122      F1126   1.357       .  S
C1123      C1128   1.402       .  A
C1123      C1132   1.410       .  A
C1128      C1129   1.395       .  A
C1128      F1133   1.358       .  S
C1129      H1134   1.083       .  S
C1129      C1130   1.412       .  A
C1130      C1131   1.405       .  A
C1131      C1132   1.401       .  A
C1131      F1135   1.357       .  S
C1132      H1136   1.083       .  S
C1137      H1147   1.082       .  S
C1137      C1138   1.410       .  A
C1137      C1142   1.402       .  A
C1138      C1143   1.494       .  S
C1138      C1139   1.410       .  A
C1139      C1140   1.394       .  A
C1139      F1144   1.357       .  S
C1140      H1145   1.083       .  S
C1140      C1141   1.402       .  A
C1141      C1142   1.408       .  A
C1142      F1146   1.358       .  S
C1143      C1148   1.410       .  A
C1143      C1152   1.411       .  A
C1148      C1149   1.396       .  A
C1148      F1153   1.357       .  S
C1149      H1154   1.084       .  S
C1149      C1150   1.403       .  A
C1150      C1151   1.400       .  A
C1151      C1152   1.400       .  A
C1151      F1155   1.357       .  S
C1152      H1156   1.082       .  S
C1157      H1167   1.083       .  S
C1157      C1158   1.407       .  A
C1157      C1162   1.399       .  A
C1158      C1163   1.488       .  S
C1158      C1159   1.406       .  A
C1159      C1160   1.400       .  A
C1159      F1164   1.358       .  S
C1160      H1165   1.083       .  S
C1160      C1161   1.409       .  A
C1161      C1162   1.406       .  A
C1162      F1166   1.357   1_554  S
C1163      C1168   1.411       .  A
C1163      C1172   1.403       .  A
C1168      C1169   1.403       .  A
C1168      F1173   1.357       .  S
C1169      H1174   1.083       .  S
C1169      C1170   1.405       .  A
C1170      C1171   1.408       .  A
C1171      C1172   1.396       .  A
C1171      F1175   1.357       .  S
C1172      H1176   1.083       .  S
C1177      H1187   1.083       .  S
C1177      C1178   1.400       .  A
C1177      C1182   1.398       .  A
C1178      C1183   1.485       .  S
C1178      C1179   1.410       .  A
C1179      C1180   1.403       .  A
C1179      F1184   1.357       .  S
C1180      H1185   1.083       .  S
C1180      C1181   1.404       .  A
C1181      C1182   1.414       .  A
C1182      F1186   1.358       .  S
C1183      C1188   1.409       .  A
C1183      C1192   1.399       .  A
C1188      C1189   1.406       .  A
C1188      F1193   1.357       .  S
C1189      H1194   1.083       .  S
C1189      C1190   1.408       .  A
C1190      C1191   1.415       .  A
C1191      C1192   1.395       .  A
C1191      F1195   1.357       .  S
C1192      H1196   1.084       .  S
C1197      H1207   1.084       .  S
C1197      C1198   1.396       .  A
C1197      C1202   1.393       .  A
C1198      C1203   1.468       .  S
C1198      C1199   1.404       .  A
C1199      C1200   1.397       .  A
C1199      F1204   1.357       .  S
C1200      H1205   1.083       .  S
C1200      C1201   1.405       .  A
C1201      C1202   1.415       .  A
C1202      F1206   1.358       .  S
C1203      C1208   1.405       .  A
C1203      C1212   1.397       .  A
C1208      C1209   1.400       .  A
C1208      F1213   1.358       .  S
C1209      H1214   1.083       .  S
C1209      C1210   1.405       .  A
C1210      C1211   1.409       .  A
C1211      C1212   1.390       .  A
C1211      F1215   1.358       .  S
C1212      H1216   1.084       .  S
C1217      H1227   1.083       .  S
C1217      C1218   1.405       .  A
C1217      C1222   1.403       .  A
C1218      C1223   1.485       .  S
C1218      C1219   1.405       .  A
C1219      C1220   1.398       .  A
C1219      F1224   1.358       .  S
C1220      H1225   1.083       .  S
C1220      C1221   1.407       .  A
C1221      C1222   1.409       .  A
C1222      F1226   1.357       .  S
C1223      C1228   1.405       .  A
C1223      C1232   1.404       .  A
C1228      C1229   1.399       .  A
C1228      F1233   1.357       .  S
C1229      H1234   1.083       .  S
C1229      C1230   1.409       .  A
C1230      C1231   1.410       .  A
C1231      C1232   1.399       .  A
C1231      F1235   1.357       .  S
C1232      H1236   1.083       .  S
C1237      H1247   1.083       .  S
C1237      C1238   1.404       .  A
C1237      C1242   1.398       .  A
C1238      C1243   1.480       .  S
C1238      C1239   1.405       .  A
C1239      C1240   1.395       .  A
C1239      F1244   1.358       .  S
C1240      H1245   1.083       .  S
C1240      C1241   1.406       .  A
C1241      C1242   1.409       .  A
C1242      F1246   1.357       .  S
C1243      C1248   1.405       .  A
C1243      C1252   1.403       .  A
C1248      C1249   1.395       .  A
C1248      F1253   1.358       .  S
C1249      H1254   1.083       .  S
C1249      C1250   1.408       .  A
C1250      C1251   1.410       .  A
C1251      C1252   1.398       .  A
C1251      F1255   1.357       .  S
C1252      H1256   1.083       .  S
C1257      H1267   1.083       .  S
C1257      C1258   1.405       .  A
C1257      C1262   1.402       .  A
C1258      C1263   1.494       .  S
C1258      C1259   1.411       .  A
C1259      C1260   1.400       .  A
C1259      F1264   1.357       .  S
C1260      H1265   1.083       .  S
C1260      C1261   1.405       .  A
C1261      C1262   1.412       .  A
C1262      F1266   1.357       .  S
C1263      C1268   1.413       .  A
C1263      C1272   1.404       .  A
C1268      C1269   1.407       .  A
C1268      F1273   1.357       .  S
C1269      H1274   1.083       .  S
C1269      C1270   1.405       .  A
C1270      C1271   1.407       .  A
C1271      C1272   1.394       .  A
C1271      F1275   1.358       .  S
C1272      H1276   1.083       .  S
C1277      H1287   1.083       .  S
C1277      C1278   1.410       .  A
C1277      C1282   1.405       .  A
C1278      C1283   1.495       .  S
C1278      C1279   1.408       .  A
C1279      C1280   1.397       .  A
C1279      F1284   1.358       .  S
C1280      H1285   1.083       .  S
C1280      C1281   1.407       .  A
C1281      C1282   1.408       .  A
C1282      F1286   1.357       .  S
C1283      C1288   1.409       .  A
C1283      C1292   1.409       .  A
C1288      C1289   1.399       .  A
C1288      F1293   1.357       .  S
C1289      H1294   1.083       .  S
C1289      C1290   1.405       .  A
C1290      C1291   1.407       .  A
C1291      C1292   1.402       .  A
C1291      F1295   1.358       .  S
C1292      H1296   1.083       .  S
