geometry optimzed in LAMMPS
_audit_creation_date              2020-12-01 
_audit_creation_method            'lammps2cif' 
_symmetry_space_group_name_H-M    'P1' 
_symmetry_Int_Tables_number       1 
_symmetry_cell_setting            triclinic 
loop_ 
_symmetry_equiv_pos_as_xyz 
  x,y,z 
_cell_length_a                    50.84448528 
_cell_length_b                    51.46635268702122 
_cell_length_c                    51.15699424156445 
_cell_angle_alpha                 89.96291905460882 
_cell_angle_beta                  90.22476398049724 
_cell_angle_gamma                 89.8282245413348 
loop_ 
_atom_site_label 
_atom_site_type_symbol 
_atom_site_fract_x 
_atom_site_fract_y 
_atom_site_fract_z 
_atom_site_charge 
In1        In  0.64638024  0.19388805  0.51329118     1.36900
C2          C  0.61483947  0.19296220  0.47116020     0.77900
O3          O  0.68065937  0.16840539  0.50200888    -0.60600
O4          O  0.65050097  0.15220040  0.52509457    -0.51500
C5          C  0.68304755  0.23094054  0.51492003     0.70600
O6          O  0.67719895  0.21862263  0.49445776    -0.46300
C7          C  0.61457938  0.19994576  0.55428385     0.75300
O8          O  0.62159992  0.17292793  0.48365020    -0.58200
O9          O  0.61017539  0.21006144  0.53219792    -0.48300
O10         O  0.62433325  0.21367326  0.48026831    -0.54600
C11         C  0.67204897  0.14858650  0.51358609     0.85400
O12         O  0.66990970  0.22439095  0.53467085    -0.56500
O13         O  0.63591877  0.18745372  0.55561470    -0.59800
In14       In  0.49385080  0.19109633  0.66723018     1.36900
C15         C  0.53362342  0.19809577  0.63367918     0.77900
O16         O  0.48509482  0.16386537  0.70095044    -0.60600
O17         O  0.50323511  0.14840121  0.66731960    -0.51500
C18         C  0.49445535  0.22853234  0.70316508     0.70600
O19         O  0.51503748  0.21860475  0.69376353    -0.46300
C20         C  0.45158929  0.19472226  0.63689557     0.75300
O21         O  0.51006881  0.20352461  0.62845404    -0.58200
O22         O  0.45871880  0.17365669  0.64743454    -0.48300
O23         O  0.53702904  0.18925051  0.65646757    -0.54600
C24         C  0.49432398  0.14398491  0.68984540     0.85400
O25         O  0.47347541  0.21883316  0.69448866    -0.56500
O26         O  0.46558279  0.21400374  0.64282691    -0.59800
In27       In  0.34515865  0.19182655  0.51190603     1.36900
C28         C  0.37289435  0.19419823  0.55583016     0.77900
O29         O  0.30984725  0.16589160  0.51235853    -0.60600
O30         O  0.34745321  0.14847556  0.50878817    -0.51500
C31         C  0.30828540  0.22882142  0.51103923     0.70600
O32         O  0.31545697  0.21759402  0.53177375    -0.46300
C33         C  0.37856656  0.19676099  0.47197638     0.69300
O34         O  0.36174482  0.17369700  0.54828959    -0.58200
O35         O  0.35670159  0.18547822  0.47002558    -0.48300
O36         O  0.36907181  0.21358305  0.54120048    -0.54600
C37         C  0.32295406  0.14515856  0.51016251     0.85400
O38         O  0.31997962  0.22094797  0.49084679    -0.56500
O39         O  0.38302562  0.20604043  0.49430097    -0.59800
In40       In  0.49556623  0.18769551  0.35614237     1.36900
C41         C  0.45522866  0.19478776  0.38859568     0.77900
O42         O  0.50326531  0.16235858  0.32120760    -0.60600
O43         O  0.48794453  0.14467173  0.35516722    -0.51500
C44         C  0.49539653  0.22471023  0.31931078     0.70600
O45         O  0.47467332  0.21688046  0.33026296    -0.46300
C46         C  0.53764588  0.18786102  0.38769363     0.75300
O47         O  0.45302234  0.18221705  0.36755185    -0.58200
O48         O  0.52635769  0.16734917  0.38043627    -0.48300
O49         O  0.47756081  0.20474824  0.39201479    -0.54600
C50         C  0.49585529  0.14166444  0.33207572     0.85400
O51         O  0.51599026  0.21342895  0.32722966    -0.56500
O52         O  0.52791020  0.20824897  0.37795149    -0.59800
In53       In  0.18615252  0.65677846  0.50286992     1.36900
C54         C  0.19458497  0.62420453  0.54271290     0.77900
O55         O  0.16159775  0.69313757  0.49829472    -0.60600
O56         O  0.14368534  0.65947140  0.51370541    -0.51500
C57         C  0.22489522  0.69135814  0.50128668     0.70600
O58         O  0.21044199  0.68644453  0.48183531    -0.46300
C59         C  0.18476264  0.62577211  0.46106913     0.75300
O60         O  0.18288254  0.64565707  0.54548491    -0.58200
O61         O  0.20557141  0.63567486  0.46991061    -0.48300
O62         O  0.20273665  0.62016665  0.51986924    -0.54600
C63         C  0.14105794  0.68300353  0.50741079     0.85400
O64         O  0.21918311  0.67870671  0.52162233    -0.56500
O65         O  0.16426244  0.63287367  0.47288120    -0.59800
In66       In  0.19728549  0.50301349  0.65373591     1.36900
C67         C  0.19874098  0.46083263  0.62343613     0.77900
O68         O  0.15346712  0.50935607  0.65393202    -0.60600
O69         O  0.17154652  0.49415225  0.68798490    -0.51500
C70         C  0.23332978  0.50461528  0.69197159     0.70600
O71         O  0.22342977  0.52486649  0.68206146    -0.46300
C72         C  0.20201936  0.54314589  0.62102262     0.75300
O73         O  0.21920559  0.47305459  0.62992983    -0.58200
O74         O  0.18891304  0.54425960  0.64185143    -0.48300
O75         O  0.17790134  0.46993675  0.63304183    -0.54600
C76         C  0.15048084  0.50119420  0.67695406     0.85400
O77         O  0.22491916  0.48384698  0.68200607    -0.56500
O78         O  0.21387844  0.52188985  0.61776581    -0.59800
In79       In  0.19324119  0.34815693  0.50375815     1.36900
C80         C  0.19920980  0.37890290  0.46218388     0.77900
O81         O  0.14977006  0.34870706  0.49647498    -0.60600
O82         O  0.16696637  0.31429133  0.51159733    -0.51500
C83         C  0.22925941  0.31018525  0.50487842     0.70600
O84         O  0.21908797  0.31977160  0.52512897    -0.46300
C85         C  0.19475346  0.37986671  0.54507924     0.75300
O86         O  0.21092013  0.38242658  0.48362269    -0.58200
O87         O  0.17377227  0.37018838  0.53636445    -0.48300
O88         O  0.18538178  0.35863975  0.46152996    -0.54600
C89         C  0.14629685  0.32567826  0.50403723     0.85400
O90         O  0.22098112  0.32017247  0.48386606    -0.56500
O91         O  0.21505919  0.37270760  0.53297374    -0.59800
In92       In  0.19137879  0.50194001  0.35334577     1.36900
C93         C  0.19029749  0.54420012  0.38361548     0.77900
O94         O  0.14783517  0.49512041  0.35306654    -0.60600
O95         O  0.16519383  0.50947914  0.31849116    -0.51500
C96         C  0.22843429  0.50108503  0.31628281     0.70600
O97         O  0.21824066  0.52179006  0.32472801    -0.46300
C98         C  0.19863966  0.46103849  0.38489940     0.75300
O99         O  0.21150969  0.53452177  0.37534039    -0.58200
O100        O  0.18497636  0.46007868  0.36432312    -0.48300
O101        O  0.17004127  0.53235211  0.37612655    -0.54600
C102        C  0.14433823  0.50284043  0.32995767     0.85400
O103        O  0.21945755  0.48080034  0.32678762    -0.56500
O104        O  0.20924099  0.48279946  0.38884450    -0.59800
In105      In  0.49687712  0.65124123  0.19689409     1.36900
C106        C  0.45602634  0.61985525  0.20569414     0.77900
O107        O  0.48917190  0.65446594  0.15400717    -0.60600
O108        O  0.50759218  0.68632093  0.17264408    -0.51500
C109        C  0.49582819  0.68772411  0.23344251     0.70600
O110        O  0.51649835  0.67577757  0.22703972    -0.46300
C111        C  0.53820487  0.61906952  0.19599233     0.75300
O112        O  0.45502296  0.63887413  0.19022384    -0.58200
O113        O  0.52523602  0.62499570  0.17581749    -0.48300
O114        O  0.47764690  0.61764398  0.21751942    -0.54600
C115        C  0.49864424  0.67693731  0.15167741     0.85400
O116        O  0.47550796  0.68108152  0.22091669    -0.56500
O117        O  0.53051185  0.63041098  0.21640760    -0.59800
In118      In  0.64876962  0.49663769  0.20185055     1.36900
C119        C  0.61716648  0.53787784  0.20004088     0.77900
O120        O  0.68122088  0.50821331  0.17498050    -0.60600
O121        O  0.65386087  0.48052023  0.16125595    -0.51500
C122        C  0.68541729  0.49702476  0.23918773     0.70600
O123        O  0.67268983  0.47700791  0.23292139    -0.46300
C124        C  0.61606100  0.45746148  0.21078605     0.75300
O125        O  0.62723171  0.52946894  0.22096263    -0.58200
O126        O  0.63853191  0.45429492  0.20091279    -0.48300
O127        O  0.62361155  0.52519337  0.17995713    -0.54600
C128        C  0.67413426  0.49365718  0.15649401     0.85400
O129        O  0.67918416  0.51699375  0.22636484    -0.56500
O130        O  0.61085589  0.48063384  0.21690508    -0.59800
In131      In  0.34627656  0.49781434  0.19891276     1.36900
C132        C  0.37782756  0.45616086  0.19988422     0.77900
O133        O  0.31165362  0.49203373  0.17217650    -0.60600
O134        O  0.34780421  0.50384039  0.15562228    -0.51500
C135        C  0.30873213  0.49724717  0.23561371     0.70600
O136        O  0.31731816  0.47684404  0.22497269    -0.46300
C137        C  0.37671102  0.53970420  0.20504496     0.75300
O138        O  0.36724253  0.46457220  0.17928253    -0.58200
O139        O  0.35616028  0.53985097  0.19122676    -0.48300
O140        O  0.37181862  0.46886634  0.22006897    -0.54600
C141        C  0.32412213  0.49782549  0.15169191     0.85400
O142        O  0.31918783  0.51775789  0.22714165    -0.56500
O143        O  0.38108409  0.51835285  0.21633561    -0.59800
In144      In  0.49832093  0.34329355  0.20414722     1.36900
C145        C  0.53664691  0.37751986  0.21243027     0.77900
O146        O  0.48859437  0.30976151  0.17760970    -0.60600
O147        O  0.50969288  0.34139200  0.16180207    -0.51500
C148        C  0.49949369  0.30596647  0.24047731     0.70600
O149        O  0.52017208  0.31592327  0.23137565    -0.46300
C150        C  0.45624359  0.37436930  0.20368855     0.75300
O151        O  0.51386555  0.38020684  0.22151181    -0.58200
O152        O  0.46687863  0.36597902  0.18311360    -0.48300
O153        O  0.54022191  0.35648973  0.20028060    -0.54600
C154        C  0.49947499  0.31946678  0.15779759     0.85400
O155        O  0.47859403  0.31530690  0.23101853    -0.56500
O156        O  0.46637520  0.36563959  0.22443974    -0.59800
In157      In  0.65836158  0.80705157  0.49805003     1.36900
C158        C  0.62762504  0.80724583  0.54029205     0.77900
O159        O  0.69449494  0.83212836  0.50181535    -0.60600
O160        O  0.65783616  0.84996787  0.49305904    -0.51500
C161        C  0.69399944  0.76893693  0.49959885     0.70600
O162        O  0.68481436  0.77790746  0.47847018    -0.46300
C163        C  0.62483838  0.80086095  0.45825706     0.75300
O164        O  0.63822433  0.82757161  0.53162616    -0.58200
O165        O  0.64615213  0.81303584  0.45570672    -0.48300
O166        O  0.63376057  0.78695007  0.52794170    -0.54600
C167        C  0.68197650  0.85295053  0.49773436     0.85400
O168        O  0.68530816  0.77999466  0.51978498    -0.56500
O169        O  0.62174122  0.79103586  0.48052546    -0.59800
In170      In  0.50466692  0.80306519  0.65050611     1.36900
C171        C  0.46433136  0.79729365  0.61723940     0.77900
O172        O  0.51038231  0.82706028  0.68697229    -0.60600
O173        O  0.49530988  0.84562241  0.65321026    -0.51500
C174        C  0.50559366  0.76557287  0.68649186     0.70600
O175        O  0.48470884  0.77308345  0.67538184    -0.46300
C176        C  0.54687335  0.80367893  0.61971285     0.75300
O177        O  0.48671961  0.78758204  0.61342720    -0.58200
O178        O  0.53760916  0.82393982  0.63008470    -0.48300
O179        O  0.46225778  0.80899211  0.63878063    -0.54600
C180        C  0.50187677  0.84781224  0.67690291     0.85400
O181        O  0.52599271  0.77695950  0.67866329    -0.56500
O182        O  0.53506909  0.78316458  0.62604438    -0.59800
In183      In  0.49856581  0.80326886  0.35030565     1.36900
C184        C  0.53907655  0.80011285  0.38346058     0.77900
O185        O  0.50109474  0.82884966  0.31500408    -0.60600
O186        O  0.50071334  0.84668317  0.35227301    -0.51500
C187        C  0.49794610  0.76535687  0.31494639     0.70600
O188        O  0.51684379  0.76856368  0.33061999    -0.46300
C189        C  0.45359013  0.79950952  0.37633826     0.75300
O190        O  0.51582377  0.79459172  0.38965800    -0.58200
O191        O  0.46956579  0.78088415  0.37399722    -0.48300
O192        O  0.54167853  0.80702057  0.35995687    -0.54600
C193        C  0.50118143  0.84975442  0.32784491     0.85400
O194        O  0.47955575  0.78158794  0.31751697    -0.56500
O195        O  0.46038985  0.81991731  0.36462625    -0.59800
In196      In  0.34682682  0.80263453  0.49970378     1.36900
C197        C  0.37388478  0.79803171  0.45548057     0.77900
O198        O  0.31095103  0.82830467  0.49999666    -0.60600
O199        O  0.34827720  0.84611666  0.50258927    -0.51500
C200        C  0.31013896  0.76582747  0.50083965     0.70600
O201        O  0.31450288  0.77981100  0.48111369    -0.46300
C202        C  0.38156550  0.79912354  0.53890765     0.75300
O203        O  0.36949629  0.77914392  0.47049393    -0.58200
O204        O  0.38602969  0.79115384  0.51610216    -0.48300
O205        O  0.36338878  0.81906484  0.46263384    -0.54600
C206        C  0.32367838  0.84919289  0.50180256     0.85400
O207        O  0.32488370  0.77057451  0.52012949    -0.56500
O208        O  0.35878530  0.80836558  0.54194647    -0.59800
In209      In  0.25133269  0.99742949  0.50714532     1.36900
C210        C  0.22727695  0.99807669  0.55324249     0.77900
O211        O  0.25122080  0.95403197  0.50826746    -0.60600
O212        O  0.28798821  0.97271618  0.50467397    -0.51500
C213        C  0.22815489  0.99778943  0.46059141     0.70600
O214        O  0.21559360  0.99642780  0.48173803    -0.46300
C215        C  0.27271767  0.04441526  0.50787898     0.75300
O216        O  0.21509640  0.99567212  0.53189330    -0.58200
O217        O  0.28598909  0.02377818  0.51020246    -0.48300
O218        O  0.25190593  0.99958843  0.55090749    -0.54600
C219        C  0.27575538  0.95149810  0.50601077     0.85400
O220        O  0.25276269  0.99881544  0.46337735    -0.56500
O221        O  0.24835531  0.04087575  0.50514377    -0.59800
In222      In  0.49866623  0.99660256  0.25412289     1.36900
C223        C  0.45227388  0.99447426  0.23043507     0.77900
O224        O  0.49911776  0.95315224  0.25211854    -0.60600
O225        O  0.49894241  0.97088911  0.28942705    -0.51500
C226        C  0.54581474  0.99794605  0.23227447     0.70600
O227        O  0.52488112  0.00147374  0.21943586    -0.46300
C228        C  0.49779161  0.04270327  0.27787683     0.75300
O229        O  0.47354221  0.99054914  0.21848251    -0.58200
O230        O  0.49719659  0.02141394  0.29011558    -0.48300
O231        O  0.45492122  0.99968741  0.25435916    -0.54600
C232        C  0.49930146  0.95001146  0.27652009     0.85400
O233        O  0.54244002  0.99417192  0.25636611    -0.56500
O234        O  0.49875948  0.04027173  0.25336274    -0.59800
In235      In  0.30231852  0.99164209  0.15930247     1.36900
C236        C  0.29997450  0.03222643  0.12722240     0.77900
O237        O  0.32933421  0.00264726  0.19203952    -0.60600
O238        O  0.34542110  0.98195191  0.16013178    -0.51500
C239        C  0.26797874  0.99384765  0.19806997     0.70600
O240        O  0.27799400  0.01374397  0.18792797    -0.46300
C241        C  0.29282541  0.95045061  0.12904321     0.75300
O242        O  0.27973505  0.02160275  0.13642307    -0.58200
O243        O  0.30655163  0.94891325  0.14957921    -0.48300
O244        O  0.32132601  0.02201026  0.13458240    -0.54600
C245        C  0.34948506  0.99259835  0.18197485     0.85400
O246        O  0.27554906  0.97269081  0.18814752    -0.56500
O247        O  0.28333538  0.97270291  0.12487827    -0.59800
In248      In  0.30237352  0.14345008  0.00708095     1.36900
C249        C  0.29493846  0.11110212  0.96725525     0.77900
O250        O  0.32828412  0.17711319  0.01694772    -0.60600
O251        O  0.34555545  0.14508713  0.99754533    -0.51500
C252        C  0.26622265  0.18091734  0.00527396     0.70600
O253        O  0.27407224  0.16929601  0.98507264    -0.46300
C254        C  0.30118114  0.11322243  0.04927653     0.75300
O255        O  0.28608452  0.10698017  0.98983069    -0.58200
O256        O  0.28064699  0.12129781  0.03796771    -0.48300
O257        O  0.30707500  0.13229971  0.96491485    -0.54600
C258        C  0.34881715  0.16732850  0.00731987     0.85400
O259        O  0.27650059  0.17285877  0.02621120    -0.56500
O260        O  0.32225505  0.12118279  0.03922927    -0.59800
In261      In  0.30116854  0.84173146  0.00696488     1.36900
C262        C  0.29210791  0.87332346  0.04729218     0.77900
O263        O  0.34466521  0.84356711  0.01476747    -0.60600
O264        O  0.32892814  0.80825068  0.00050381    -0.51500
C265        C  0.26466852  0.80440572  0.00711071     0.70600
O266        O  0.27317487  0.81516033  0.02758715    -0.46300
C267        C  0.30108689  0.87233767  0.96507000     0.75300
O268        O  0.30485111  0.85236800  0.04943829    -0.58200
O269        O  0.32177033  0.86396561  0.97570345    -0.48300
O270        O  0.28336199  0.87756300  0.02463325    -0.54600
C271        C  0.34917052  0.82063880  0.00743244     0.85400
O272        O  0.27528036  0.81251425  0.98641475    -0.56500
O273        O  0.28019003  0.86419864  0.97541655    -0.59800
In274      In  0.30380394  0.99323075  0.85462758     1.36900
C275        C  0.30133168  0.95228249  0.88595951     0.77900
O276        O  0.34515596  0.00824741  0.85121174    -0.60600
O277        O  0.33322419  0.97764787  0.82632393    -0.51500
C278        C  0.27019771  0.99759705  0.81483943     0.70600
O279        O  0.27699363  0.01658402  0.82876649    -0.46300
C280        C  0.29510491  0.03119984  0.88839645     0.75300
O281        O  0.28131718  0.96139774  0.87452542    -0.58200
O282        O  0.30937107  0.03383823  0.86844833    -0.48300
O283        O  0.32247566  0.96388690  0.88075947    -0.54600
C284        C  0.35140229  0.99281306  0.83316496     0.85400
O285        O  0.28059409  0.97636557  0.82141520    -0.56500
O286        O  0.28437555  0.00925221  0.89045374    -0.59800
In287      In  0.68983451  0.15345098  0.01093842     1.36900
C288        C  0.69097811  0.12002913  0.05081810     0.77900
O289        O  0.66136464  0.18206979  0.99255809    -0.60600
O290        O  0.65212863  0.16581048  0.02939881    -0.51500
C291        C  0.72704729  0.19000881  0.01207618     0.70600
O292        O  0.72201324  0.17654217  0.99212692    -0.46300
C293        C  0.69363791  0.11948824  0.97166114     0.75300
O294        O  0.71022699  0.13435595  0.04505448    -0.58200
O295        O  0.67474348  0.13518505  0.97396327    -0.48300
O296        O  0.67111651  0.12317947  0.03633113    -0.54600
C297        C  0.64496931  0.18038738  0.01090329     0.85400
O298        O  0.71284334  0.18476539  0.03150682    -0.56500
O299        O  0.71100762  0.12175480  0.98909837    -0.59800
In300      In  0.69655295  0.99970820  0.16363210     1.36900
C301        C  0.70310968  0.95780339  0.13362917     0.77900
O302        O  0.67078140  0.00362343  0.19919157    -0.60600
O303        O  0.65307500  0.99404293  0.16292076    -0.51500
C304        C  0.73385858  0.00175284  0.20037379     0.70600
O305        O  0.72703423  0.98091882  0.18936248    -0.46300
C306        C  0.69651032  0.04060964  0.13118634     0.75300
O307        O  0.71408733  0.97927401  0.12938104    -0.58200
O308        O  0.67613658  0.03213513  0.14214601    -0.48300
O309        O  0.68914791  0.95748032  0.15391043    -0.54600
C310        C  0.64985014  0.99857543  0.18690706     0.85400
O311        O  0.72135795  0.02152334  0.19258719    -0.56500
O312        O  0.71722461  0.02872059  0.13766740    -0.59800
In313      In  0.68940482  0.99921956  0.85973229     1.36900
C314        C  0.69247084  0.03965699  0.89207538     0.77900
O315        O  0.64552907  0.00356914  0.85899371    -0.60600
O316        O  0.66457446  0.99029171  0.82471153    -0.51500
C317        C  0.72734023  0.00148082  0.82366141     0.70600
O318        O  0.71641969  0.02141926  0.83302823    -0.46300
C319        C  0.69171517  0.95781928  0.89068776     0.75300
O320        O  0.70403221  0.01836849  0.89611735    -0.58200
O321        O  0.67086361  0.96507284  0.87951256    -0.48300
O322        O  0.67993654  0.04063047  0.87078852    -0.54600
C323        C  0.64314454  0.99594925  0.83571071     0.85400
O324        O  0.71870960  0.98043472  0.83281134    -0.56500
O325        O  0.71161409  0.97125537  0.88513637    -0.59800
In326      In  0.69708582  0.84837784  0.01267010     1.36900
C327        C  0.69704135  0.87982326  0.97153743     0.77900
O328        O  0.65362007  0.84955335  0.02161611    -0.60600
O329        O  0.66932974  0.81606780  0.00343425    -0.51500
C330        C  0.73182234  0.80946366  0.00996661     0.70600
O331        O  0.72356739  0.82151105  0.99013098    -0.46300
C332        C  0.70643709  0.87864500  0.05398096     0.75300
O333        O  0.71796532  0.87186588  0.98217986    -0.58200
O334        O  0.69310478  0.85809736  0.05525883    -0.48300
O335        O  0.67634036  0.87129963  0.98185963    -0.54600
C336        C  0.64917818  0.82733777  0.01226781     0.85400
O337        O  0.72235870  0.81753991  0.03123471    -0.56500
O338        O  0.71623395  0.88284692  0.03183298    -0.59800
In339      In  0.50080912  0.34850342  0.81588545     1.36900
C340        C  0.46131488  0.38138608  0.80554455     0.77900
O341        O  0.50947973  0.31486698  0.84289254    -0.60600
O342        O  0.48824309  0.34675759  0.85802657    -0.51500
C343        C  0.49982331  0.31119541  0.77979025     0.70600
O344        O  0.47958651  0.32345976  0.78688807    -0.46300
C345        C  0.54300150  0.37915109  0.81647557     0.75300
O346        O  0.48448678  0.38501672  0.79779495    -0.58200
O347        O  0.53075229  0.37271160  0.83684094    -0.48300
O348        O  0.45824995  0.36043263  0.81795980    -0.54600
C349        C  0.49808631  0.32467797  0.86239083     0.85400
O350        O  0.52065345  0.31827080  0.79111307    -0.56500
O351        O  0.53421381  0.36894404  0.79584466    -0.59800
In352      In  0.35148787  0.50349387  0.80945144     1.36900
C353        C  0.38555735  0.54307164  0.81151130     0.77900
O354        O  0.31854590  0.51748864  0.83550591    -0.60600
O355        O  0.34714735  0.49198617  0.85115307    -0.51500
C356        C  0.31356416  0.50275507  0.77308227     0.70600
O357        O  0.32209601  0.52336358  0.78330586    -0.46300
C358        C  0.38138888  0.46149776  0.80189582     0.75300
O359        O  0.37248493  0.53770933  0.79123458    -0.58200
O360        O  0.38511137  0.48270090  0.79002205    -0.48300
O361        O  0.38118177  0.52815841  0.83048102    -0.54600
C362        C  0.32665685  0.50509335  0.85519371     0.85400
O363        O  0.32473365  0.48244472  0.78135296    -0.56500
O364        O  0.36144883  0.46152913  0.81644712    -0.59800
In365      In  0.50541780  0.65665549  0.81052065     1.36900
C366        C  0.54628906  0.62613294  0.79964351     0.77900
O367        O  0.51846007  0.66210816  0.85197476    -0.60600
O368        O  0.49319808  0.69060882  0.83606192    -0.51500
C369        C  0.50457492  0.69122892  0.77171583     0.70600
O370        O  0.52559529  0.68234880  0.78143686    -0.46300
C371        C  0.46610441  0.62247687  0.81412266     0.75300
O372        O  0.52367954  0.62240472  0.79020931    -0.58200
O373        O  0.48309748  0.62529861  0.83186007    -0.48300
O374        O  0.54816768  0.64638122  0.81338824    -0.54600
C375        C  0.50605466  0.68293720  0.85570754     0.85400
O376        O  0.48399677  0.68254562  0.78218824    -0.56500
O377        O  0.46882895  0.63779986  0.79512074    -0.59800
In378      In  0.65220127  0.50258223  0.81771266     1.36900
C379        C  0.61974690  0.46188211  0.81870455     0.77900
O380        O  0.68539141  0.49122240  0.84423880    -0.60600
O381        O  0.65299979  0.51119027  0.86070275    -0.51500
C382        C  0.69044550  0.50128058  0.78209251     0.70600
O383        O  0.67833289  0.48126376  0.78947603    -0.46300
C384        C  0.62354606  0.54474039  0.80647053     0.75300
O385        O  0.62505757  0.47513340  0.83870343    -0.58200
O386        O  0.61916225  0.52275165  0.79659102    -0.48300
O387        O  0.63083657  0.46976799  0.79819159    -0.54600
C388        C  0.67499022  0.50049979  0.86455311     0.85400
O389        O  0.68326533  0.52185394  0.79341726    -0.56500
O390        O  0.64293218  0.54516324  0.82182858    -0.59800
In391      In  0.25246195  0.49841651  0.00221246     1.36900
C392        C  0.23193303  0.45121118  0.99940554     0.77900
O393        O  0.25230941  0.50499622  0.95893554    -0.60600
O394        O  0.28880364  0.49733896  0.97756363    -0.51500
C395        C  0.22567664  0.54296544  0.00437809     0.70600
O396        O  0.21503402  0.52169864  0.99831084    -0.46300
C397        C  0.27456820  0.49694912  0.04945976     0.75300
O398        O  0.21847576  0.47146322  0.00320514    -0.58200
O399        O  0.28719953  0.50246481  0.02901186    -0.48300
O400        O  0.25621128  0.45518187  0.99683333    -0.54600
C401        C  0.27674101  0.50181634  0.95645313     0.85400
O402        O  0.25000189  0.54126777  0.00908338    -0.56500
O403        O  0.25056404  0.49226125  0.04557304    -0.59800
In404      In  0.49362633  0.24833215  0.00888917     1.36900
C405        C  0.44753772  0.22351952  0.00854391     0.77900
O406        O  0.49395858  0.24778419  0.05256411    -0.60600
O407        O  0.49728961  0.28426559  0.03383634    -0.51500
C408        C  0.54097715  0.22623592  0.00957345     0.70600
O409        O  0.52031276  0.21409136  0.01543226    -0.46300
C410        C  0.49274301  0.27122110  0.96222508     0.75300
O411        O  0.46920865  0.21229698  0.00446573    -0.58200
O412        O  0.48812031  0.28331606  0.98318563    -0.48300
O413        O  0.44951214  0.24760590  0.01246817    -0.54600
C414        C  0.49643905  0.27198638  0.05515322     0.85400
O415        O  0.53727208  0.24964890  0.00332589    -0.56500
O416        O  0.49695960  0.24726396  0.96528045    -0.59800
In417      In  0.99164955  0.69629160  0.16404528     1.36900
C418        C  0.03366376  0.69356849  0.13299037     0.77900
O419        O  0.98222929  0.65397876  0.16361778    -0.60600
O420        O  0.99787192  0.66998574  0.19854620    -0.51500
C421        C  0.99264277  0.73302972  0.20091415     0.70600
O422        O  0.01310324  0.72420531  0.19022613    -0.46300
C423        C  0.95124532  0.70436419  0.13175975     0.75300
O424        O  0.02400461  0.67397406  0.14407608    -0.58200
O425        O  0.94928475  0.69142902  0.15254015    -0.48300
O426        O  0.02244012  0.71466237  0.13878761    -0.54600
C427        C  0.98948613  0.65003774  0.18685630     0.85400
O428        O  0.97165596  0.72279958  0.19281572    -0.56500
O429        O  0.97352921  0.71436143  0.12839152    -0.59800
In430      In  0.14687945  0.68813778  0.01245547     1.36900
C431        C  0.11455159  0.69502055  0.97160198     0.77900
O432        O  0.18001892  0.66140634  0.02454400    -0.60600
O433        O  0.14984000  0.64611148  0.00071293    -0.51500
C434        C  0.18341329  0.72545446  0.01165176     0.70600
O435        O  0.17343551  0.71585744  0.99126925    -0.46300
C436        C  0.11482765  0.69036752  0.05372213     0.75300
O437        O  0.10858999  0.70064858  0.99478220    -0.58200
O438        O  0.12298371  0.66922946  0.04416804    -0.48300
O439        O  0.13762830  0.68638483  0.96908228    -0.54600
C440        C  0.17134796  0.64197674  0.01230905     0.85400
O441        O  0.17467669  0.71584462  0.03251874    -0.56500
O442        O  0.12361290  0.71027810  0.04238880    -0.59800
In443      In  0.84608519  0.68990186  0.00590580     1.36900
C444        C  0.87668283  0.70083171  0.04686939     0.77900
O445        O  0.84717705  0.64675236  0.01213224    -0.60600
O446        O  0.81164186  0.66353998  0.99852487    -0.51500
C447        C  0.80772806  0.72521705  0.00740893     0.70600
O448        O  0.81674611  0.71429899  0.02762566    -0.46300
C449        C  0.87655545  0.68939030  0.96363715     0.75300
O450        O  0.88005725  0.71110683  0.02478991    -0.58200
O451        O  0.86384155  0.70924628  0.97070121    -0.48300
O452        O  0.85742896  0.68555634  0.04782939    -0.54600
C453        C  0.82371959  0.64312992  0.00515494     0.85400
O454        O  0.81807301  0.71755593  0.98637069    -0.56500
O455        O  0.87344215  0.66995591  0.97821014    -0.59800
In456      In  0.99783285  0.69220723  0.85348373     1.36900
C457        C  0.95371064  0.69193223  0.88129325     0.77900
O458        O  0.99401378  0.66717939  0.81728744    -0.60600
O459        O  0.01041502  0.65044914  0.85129118    -0.51500
C460        C  0.99789747  0.73182013  0.82000064     0.70600
O461        O  0.97813878  0.71761303  0.82372992    -0.46300
C462        C  0.03544649  0.69743514  0.88967533     0.75300
O463        O  0.96391377  0.67158372  0.87199168    -0.58200
O464        O  0.04051068  0.69271855  0.86600103    -0.48300
O465        O  0.96539044  0.71257616  0.87509350    -0.54600
C466        C  0.00372152  0.64719363  0.82781846     0.85400
O467        O  0.01780981  0.72552482  0.83339273    -0.56500
O468        O  0.01135058  0.70044743  0.89427618    -0.59800
In469      In  0.15799604  0.30525588  0.00467667     1.36900
C470        C  0.12749461  0.30088106  0.04653514     0.77900
O471        O  0.19261002  0.33010571  0.99388564    -0.60600
O472        O  0.15925561  0.34791283  0.01107907    -0.51500
C473        C  0.19394430  0.26778316  0.00534445     0.70600
O474        O  0.18549770  0.27834220  0.02590825    -0.46300
C475        C  0.12542734  0.30481293  0.96388042     0.75300
O476        O  0.14891517  0.31309558  0.04693281    -0.58200
O477        O  0.13456668  0.32529981  0.97372756    -0.48300
O478        O  0.12249124  0.28997687  0.02504596    -0.54600
C479        C  0.18182240  0.35084384  0.00153375     0.85400
O480        O  0.18427918  0.27683696  0.98451704    -0.56500
O481        O  0.13344693  0.28423381  0.97469466    -0.59800
In482      In  0.00844329  0.30841762  0.16043149     1.36900
C483        C  0.96545429  0.30353894  0.13085389     0.77900
O484        O  0.01362228  0.33445176  0.19536612    -0.60600
O485        O  0.00390682  0.35186065  0.15906198    -0.51500
C486        C  0.00889338  0.27166105  0.19705992     0.70600
O487        O  0.98814762  0.27968813  0.18620580    -0.46300
C488        C  0.04853559  0.30345657  0.12729709     0.75300
O489        O  0.96624767  0.31825107  0.15054644    -0.58200
O490        O  0.04557067  0.32321366  0.14155998    -0.48300
O491        O  0.98650167  0.29141348  0.12665873    -0.54600
C492        C  0.00845255  0.35514959  0.18312910     0.85400
O493        O  0.02949324  0.28281530  0.18936192    -0.56500
O494        O  0.03162736  0.28607080  0.13083534    -0.59800
In495      In  0.84857815  0.30240141  0.01451125     1.36900
C496        C  0.88087902  0.29771377  0.97388859     0.77900
O497        O  0.81517713  0.32905476  0.02479074    -0.60600
O498        O  0.84787750  0.34474273  0.00481153    -0.51500
C499        C  0.81116223  0.26600895  0.01250323     0.70600
O500        O  0.82279059  0.27419560  0.99245214    -0.46300
C501        C  0.88014612  0.30090101  0.05627305     0.75300
O502        O  0.88572113  0.28817891  0.99609855    -0.58200
O503        O  0.86864707  0.32132538  0.04886887    -0.48300
O504        O  0.85885267  0.30893775  0.97220457    -0.54600
C505        C  0.82574823  0.34892203  0.01501210     0.85400
O506        O  0.81899537  0.27627332  0.03345985    -0.56500
O507        O  0.87470136  0.28109517  0.04281799    -0.59800
In508      In  0.99849604  0.30872804  0.85861843     1.36900
C509        C  0.04211574  0.30883192  0.88720906     0.77900
O510        O  0.00799893  0.33371739  0.82398714    -0.60600
O511        O  0.98912383  0.35134594  0.85621408    -0.51500
C512        C  0.99645155  0.27171710  0.82230003     0.70600
O513        O  0.01757573  0.28039432  0.83175480    -0.46300
C514        C  0.96048357  0.30055126  0.89342553     0.75300
O515        O  0.03193881  0.28832255  0.87832169    -0.58200
O516        O  0.95633972  0.31124191  0.87159416    -0.48300
O517        O  0.03013775  0.32937938  0.88087542    -0.54600
C518        C  0.99890128  0.35427577  0.83382123     0.85400
O519        O  0.97600034  0.28197009  0.83168577    -0.56500
O520        O  0.98391491  0.29344838  0.89693885    -0.59800
In521      In  0.99890773  0.15867185  0.70238303     1.36900
C522        C  0.95837274  0.12670659  0.70991633     0.77900
O523        O  0.98807624  0.16141725  0.66030844    -0.60600
O524        O  0.00963009  0.19261818  0.67665849    -0.51500
C525        C  0.99871014  0.19405724  0.74036875     0.70600
O526        O  0.01952809  0.18492994  0.73073139    -0.46300
C527        C  0.04062192  0.12740609  0.70077424     0.75300
O528        O  0.98108888  0.12235755  0.71880054    -0.58200
O529        O  0.03046870  0.13522534  0.72180093    -0.48300
O530        O  0.95624139  0.14791552  0.69773615    -0.54600
C531        C  0.99902053  0.18301724  0.65655528     0.85400
O532        O  0.97795543  0.18526094  0.73018617    -0.56500
O533        O  0.02964083  0.13611361  0.68047230    -0.59800
In534      In  0.15174139  0.00593404  0.69999744     1.36900
C535        C  0.12100157  0.04789354  0.70105829     0.77900
O536        O  0.18735021  0.01281791  0.67491487    -0.60600
O537        O  0.15265070  0.99873384  0.65692674    -0.51500
C538        C  0.18938500  0.00536450  0.73588345     0.70600
O539        O  0.17977805  0.98499857  0.72609252    -0.46300
C540        C  0.11938577  0.96571552  0.70798769     0.75300
O541        O  0.12885509  0.03645219  0.72140847    -0.58200
O542        O  0.13927297  0.96418160  0.69346589    -0.48300
O543        O  0.12949726  0.03812840  0.68012164    -0.54600
C544        C  0.17634307  0.00535963  0.65412625     0.85400
O545        O  0.17957804  0.02620630  0.72728834    -0.56500
O546        O  0.11673882  0.98747275  0.71887658    -0.59800
In547      In  0.84590284  0.00663014  0.70739330     1.36900
C548        C  0.87657249  0.96478464  0.71135066     0.77900
O549        O  0.81103801  0.00818183  0.68065068    -0.60600
O550        O  0.84877700  0.00471535  0.66352123    -0.51500
C551        C  0.80858790  0.00380591  0.74407955     0.70600
O552        O  0.81733202  0.98413322  0.73230902    -0.46300
C553        C  0.87699796  0.04842579  0.71139053     0.75300
O554        O  0.87399170  0.98098062  0.72961851    -0.58200
O555        O  0.88028367  0.02791193  0.72437523    -0.48300
O556        O  0.86299104  0.96986355  0.69133243    -0.54600
C557        C  0.82426579  0.00622349  0.65989542     0.85400
O558        O  0.81867103  0.02489653  0.73665233    -0.56500
O559        O  0.85704970  0.04797829  0.69674956    -0.59800
In560      In  0.99787601  0.85406978  0.70962745     1.36900
C561        C  0.03771876  0.88758928  0.71376703     0.77900
O562        O  0.99162355  0.81859092  0.68460609    -0.60600
O563        O  0.00318529  0.85351550  0.66623159    -0.51500
C564        C  0.99923127  0.81787935  0.74692056     0.70600
O565        O  0.01967184  0.82929271  0.73911124    -0.46300
C566        C  0.95466148  0.88327898  0.71112614     0.75300
O567        O  0.04013055  0.86553879  0.70325847    -0.58200
O568        O  0.96313856  0.87318198  0.69038624    -0.48300
O569        O  0.01524794  0.89181616  0.72309058    -0.54600
C570        C  0.99676178  0.83004278  0.66347291     0.85400
O571        O  0.97837114  0.82547041  0.73592217    -0.56500
O572        O  0.96784002  0.87752673  0.73126103    -0.59800
In573      In  0.15148680  0.00041356  0.31437914     1.36900
C574        C  0.11859674  0.96035614  0.31335205     0.77900
O575        O  0.15025453  0.00499960  0.35790140    -0.60600
O576        O  0.18658341  0.99520521  0.34000824    -0.51500
C577        C  0.18984203  0.99696930  0.27955711     0.70600
O578        O  0.18085076  0.01831262  0.28767226    -0.46300
C579        C  0.12409343  0.04385238  0.30576220     0.75300
O580        O  0.12466899  0.97310113  0.29323424    -0.58200
O581        O  0.11968732  0.02299927  0.29372303    -0.48300
O582        O  0.12969522  0.96799678  0.33396516    -0.54600
C583        C  0.17438198  0.99992385  0.36090428     0.85400
O584        O  0.17910190  0.97725381  0.28943547    -0.56500
O585        O  0.14262825  0.04239692  0.32208610    -0.59800
In586      In  0.00710598  0.15567411  0.31354677     1.36900
C587        C  0.05043568  0.12828919  0.30465962     0.77900
O588        O  0.01205858  0.15783359  0.35680738    -0.60600
O589        O  0.99198637  0.18879833  0.33831532    -0.51500
C590        C  0.01038453  0.19127659  0.27618695     0.70600
O591        O  0.99215505  0.17473183  0.27735578    -0.46300
C592        C  0.96783641  0.12108421  0.31466535     0.75300
O593        O  0.04880780  0.14480522  0.32275770    -0.58200
O594        O  0.98972890  0.11767234  0.32565794    -0.48300
O595        O  0.03035116  0.12709887  0.29014762    -0.54600
C596        C  0.00042521  0.17924040  0.35939876     0.85400
O597        O  0.02737932  0.18930818  0.29412446    -0.56500
O598        O  0.96590806  0.14250356  0.30281237    -0.59800
In599      In  0.84828984  0.00715740  0.32104942     1.36900
C600        C  0.88425120  0.04463797  0.31825892     0.77900
O601        O  0.81616268  0.99409701  0.34796094    -0.60600
O602        O  0.84022521  0.02521161  0.36022165    -0.51500
C603        C  0.81311706  0.00782502  0.28209124     0.70600
O604        O  0.81611939  0.02676896  0.29745352    -0.46300
C605        C  0.87767822  0.96415364  0.31895458     0.75300
O606        O  0.88568730  0.02579575  0.33390047    -0.58200
O607        O  0.86257115  0.96907112  0.33780775    -0.48300
O608        O  0.86409869  0.04438380  0.30380139    -0.54600
C609        C  0.82165729  0.01010962  0.36576009     0.85400
O610        O  0.82828877  0.98895079  0.28666422    -0.56500
O611        O  0.87711343  0.98097449  0.30101417    -0.59800
In612      In  0.99710875  0.85018681  0.31683943     1.36900
C613        C  0.95490080  0.88149601  0.31522253     0.77900
O614        O  0.00312109  0.85061921  0.36019016    -0.60600
O615        O  0.99195962  0.81502086  0.34272959    -0.51500
C616        C  0.99734445  0.81343737  0.28018432     0.70600
O617        O  0.97677069  0.82114498  0.29150444    -0.46300
C618        C  0.03856790  0.88118501  0.31156778     0.75300
O619        O  0.96823010  0.87585790  0.29533420    -0.58200
O620        O  0.03831164  0.86211352  0.32700447    -0.48300
O621        O  0.96275762  0.87042551  0.33576830    -0.54600
C622        C  0.99760948  0.82697537  0.36354151     0.85400
O623        O  0.01808396  0.82439787  0.28797643    -0.56500
O624        O  0.01796055  0.88372726  0.29809558    -0.59800
In625      In  0.80679766  0.64761376  0.50654147     1.36900
C626        C  0.80324541  0.61525900  0.46592819     0.77900
O627        O  0.83008126  0.68345558  0.51456335    -0.60600
O628        O  0.85104552  0.64918955  0.50458384    -0.51500
C629        C  0.77023499  0.68477158  0.50227129     0.70600
O630        O  0.78241283  0.67590926  0.48276761    -0.46300
C631        C  0.80328614  0.61756718  0.54907680     0.75300
O632        O  0.81999156  0.63322660  0.46689013    -0.58200
O633        O  0.82392408  0.62943008  0.54274325    -0.48300
O634        O  0.78835092  0.61436095  0.48546670    -0.54600
C635        C  0.85214937  0.67298246  0.51051158     0.85400
O636        O  0.77672052  0.67433692  0.52365669    -0.56500
O637        O  0.78417242  0.62163102  0.53390391    -0.59800
In638      In  0.80720300  0.50057325  0.66417680     1.36900
C639        C  0.80471685  0.54193694  0.63274177     0.77900
O640        O  0.83437374  0.50379675  0.69844425    -0.60600
O641        O  0.85104184  0.49633932  0.66125533    -0.51500
C642        C  0.77128000  0.50192267  0.70223224     0.70600
O643        O  0.77776328  0.48142465  0.69039531    -0.46300
C644        C  0.80018816  0.45880331  0.63389747     0.75300
O645        O  0.82560127  0.53467114  0.64384756    -0.58200
O646        O  0.81398184  0.45813158  0.65441195    -0.48300
O647        O  0.78485190  0.52860603  0.63866028    -0.54600
C648        C  0.85498685  0.50011758  0.68529381     0.85400
O649        O  0.78339707  0.52186947  0.69463207    -0.56500
O650        O  0.78976762  0.48058984  0.62948354    -0.59800
In651      In  0.80184067  0.49265485  0.35719826     1.36900
C652        C  0.80131822  0.45298134  0.39067119     0.77900
O653        O  0.82634997  0.48287447  0.32188660    -0.60600
O654        O  0.84509036  0.49849600  0.35545598    -0.51500
C655        C  0.76481351  0.49346782  0.32044111     0.70600
O656        O  0.77253761  0.47281417  0.33130880    -0.46300
C657        C  0.79763435  0.53448694  0.38767503     0.75300
O658        O  0.82154977  0.45953534  0.37827231    -0.58200
O659        O  0.81391325  0.53284562  0.36925821    -0.48300
O660        O  0.78116211  0.46613297  0.38505457    -0.54600
C661        C  0.84756978  0.49022217  0.33239036     0.85400
O662        O  0.77625211  0.51369814  0.32840597    -0.56500
O663        O  0.78265357  0.51517619  0.38959234    -0.59800
In664      In  0.80165930  0.34589224  0.51554149     1.36900
C665        C  0.79428565  0.37790672  0.55582014     0.77900
O666        O  0.84506274  0.34621301  0.52461760    -0.60600
O667        O  0.82866768  0.31211397  0.50841795    -0.51500
C668        C  0.76565718  0.30826528  0.51537876     0.70600
O669        O  0.77814902  0.31489668  0.49523564    -0.46300
C670        C  0.79996713  0.37684542  0.47381841     0.75300
O671        O  0.78500021  0.38207056  0.53335462    -0.58200
O672        O  0.82109367  0.36830983  0.48351396    -0.48300
O673        O  0.80640960  0.35657087  0.55797517    -0.54600
C674        C  0.84903689  0.32336502  0.51667769     0.85400
O675        O  0.77164439  0.32098075  0.53560099    -0.56500
O676        O  0.77954766  0.36866525  0.48495871    -0.59800
In677      In  0.99849913  0.25176262  0.50703520     1.36900
C678        C  0.95254227  0.27622774  0.51175014     0.77900
O679        O  0.99310517  0.25163978  0.46362638    -0.60600
O680        O  0.00066967  0.21572984  0.48238955    -0.51500
C681        C  0.04561021  0.27366586  0.50426115     0.70600
O682        O  0.02453863  0.28585848  0.49964863    -0.46300
C683        C  0.99924042  0.22909436  0.55348448     0.75300
O684        O  0.97415544  0.28815294  0.51265863    -0.58200
O685        O  0.99454922  0.21679660  0.53267716    -0.48300
O686        O  0.95477736  0.25208716  0.50829408    -0.54600
C687        C  0.99631382  0.22747300  0.46118717     0.85400
O688        O  0.04246655  0.25000904  0.50969794    -0.56500
O689        O  0.00365169  0.25297284  0.55028593    -0.59800
In690      In  0.99479604  0.50184161  0.25721372     1.36900
C691        C  0.94899695  0.49621990  0.28178314     0.77900
O692        O  0.99072757  0.54522405  0.26078354    -0.60600
O693        O  0.99166652  0.52863944  0.22296745    -0.51500
C694        C  0.04227315  0.50477141  0.27911568     0.70600
O695        O  0.02147156  0.50136960  0.29201289    -0.46300
C696        C  0.99939850  0.45653022  0.23225548     0.75300
O697        O  0.97044913  0.49965403  0.29367062    -0.58200
O698        O  0.99462446  0.47756661  0.22046744    -0.48300
O699        O  0.95111172  0.49560632  0.25725479    -0.54600
C700        C  0.99025982  0.54907941  0.23647517     0.85400
O701        O  0.03866137  0.50696756  0.25481895    -0.56500
O702        O  0.00162784  0.45890602  0.25668628    -0.59800
In703      In  0.99360524  0.75899680  0.51444850     1.36900
C704        C  0.99253877  0.78274154  0.56081326     0.77900
O705        O  0.94922517  0.75772312  0.51466799    -0.60600
O706        O  0.97036148  0.72234121  0.51219362    -0.51500
C707        C  0.99488188  0.78169396  0.46749779     0.70600
O708        O  0.99787166  0.79418318  0.48849101    -0.46300
C709        C  0.04021433  0.73504636  0.51506887     0.75300
O710        O  0.99021480  0.79491604  0.53954355    -0.58200
O711        O  0.01879453  0.72337786  0.51844776    -0.48300
O712        O  0.99488585  0.75853545  0.55817395    -0.54600
C713        C  0.94819538  0.73326332  0.51312451     0.85400
O714        O  0.99086953  0.75776816  0.47075947    -0.56500
O715        O  0.03775121  0.75920907  0.51183667    -0.59800
In716      In  0.00523525  0.49902019  0.75623095     1.36900
C717        C  0.05096834  0.49724537  0.73136451     0.77900
O718        O  0.00353627  0.54257080  0.75503392    -0.60600
O719        O  0.01182745  0.52470110  0.79133048    -0.51500
C720        C  0.95757859  0.49952593  0.73460791     0.70600
O721        O  0.97845657  0.49988592  0.72138086    -0.46300
C722        C  0.00328894  0.45277609  0.77929381     0.75300
O723        O  0.02923375  0.49971588  0.71965362    -0.58200
O724        O  0.00134125  0.47393524  0.79159795    -0.48300
O725        O  0.04915315  0.49551613  0.75586426    -0.54600
C726        C  0.00840186  0.54565322  0.77898540     0.85400
O727        O  0.96123267  0.49896738  0.75897630    -0.56500
O728        O  0.00637454  0.45537865  0.75499668    -0.59800
In729      In  0.74759893  0.00234515  0.51280399     1.36900
C730        C  0.76958932  0.00519885  0.46590863     0.77900
O731        O  0.75077622  0.95897698  0.51202905    -0.60600
O732        O  0.71277458  0.97593075  0.50975396    -0.51500
C733        C  0.77197187  0.00296516  0.55903192     0.70600
O734        O  0.78413476  0.99997406  0.53780179    -0.46300
C735        C  0.72281957  0.04781794  0.51407763     0.75300
O736        O  0.78225436  0.00887151  0.48685790    -0.58200
O737        O  0.71150919  0.02677520  0.51971453    -0.48300
O738        O  0.74557190  0.00005159  0.46905751    -0.54600
C739        C  0.72634686  0.95537453  0.50989901     0.85400
O740        O  0.74742000  0.00486934  0.55642092    -0.56500
O741        O  0.74659078  0.04534799  0.50770120    -0.59800
In742      In  0.75165325  0.49575862  0.01103058     1.36900
C743        C  0.77749536  0.45079768  0.01303765     0.77900
O744        O  0.75060083  0.50456981  0.05395047    -0.60600
O745        O  0.71730705  0.48661472  0.03665184    -0.51500
C746        C  0.77346186  0.54255958  0.00958485     0.70600
O747        O  0.78656531  0.52202814  0.01350356    -0.46300
C748        C  0.72708387  0.49415414  0.96507307     0.75300
O749        O  0.78848308  0.47165424  0.00618985    -0.58200
O750        O  0.71557440  0.49988674  0.98607770    -0.48300
O751        O  0.75361290  0.45326565  0.01896078    -0.54600
C752        C  0.72781772  0.49550735  0.05713135     0.85400
O753        O  0.74912519  0.53899976  0.00655096    -0.56500
O754        O  0.75116581  0.48903055  0.96775387    -0.59800
In755      In  0.50107161  0.75289521  0.00510761     1.36900
C756        C  0.45298648  0.77377425  0.00476032     0.77900
O757        O  0.49816050  0.75473300  0.96134751    -0.60600
O758        O  0.50793180  0.71867094  0.97888356    -0.51500
C759        C  0.54742028  0.77696765  0.00697420     0.70600
O760        O  0.52589449  0.78890975  0.00976978    -0.46300
C761        C  0.50017011  0.72835565  0.05092398     0.75300
O762        O  0.47363707  0.78720987  0.00286737    -0.58200
O763        O  0.49805846  0.71671557  0.02934648    -0.48300
O764        O  0.45714819  0.74969355  0.00657148    -0.54600
C765        C  0.50393863  0.73112428  0.95800544     0.85400
O766        O  0.54497130  0.75290407  0.00337321    -0.56500
O767        O  0.50290001  0.75261022  0.04889487    -0.59800
In768      In  0.49766954  0.99237678  0.75601009     1.36900
C769        C  0.54391119  0.99092202  0.78047420     0.77900
O770        O  0.50359218  0.94924257  0.75428691    -0.60600
O771        O  0.49134824  0.96848367  0.71969174    -0.51500
C772        C  0.45209938  0.99038204  0.78121409     0.70600
O773        O  0.47301518  0.99837354  0.79173072    -0.46300
C774        C  0.49707632  0.03984979  0.73421643     0.75300
O775        O  0.52236711  0.98755243  0.79206951    -0.58200
O776        O  0.50360063  0.01968046  0.72181720    -0.48300
O777        O  0.54168819  0.99483746  0.75625381    -0.54600
C778        C  0.49751809  0.94720673  0.73044583     0.85400
O779        O  0.45454318  0.98328738  0.75776482    -0.56500
O780        O  0.49056760  0.03551749  0.75750764    -0.59800
C781        C  0.90398919  0.27357128  0.51064145    -0.12000
C782        C  0.92646919  0.28894939  0.51415414     0.05100
C783        C  0.92325890  0.31568677  0.51962292    -0.07200
C784        C  0.89789332  0.32648460  0.52067458    -0.08000
C785        C  0.87545275  0.31108171  0.51654446    -0.02500
C786        C  0.87876462  0.28425832  0.51187454     0.04300
N787        N  0.85674835  0.26733324  0.50887148     0.66800
H788        H  0.90587880  0.25297006  0.50680153     0.15700
H789        H  0.89580378  0.34705795  0.52455927     0.15400
N790        N  0.94536685  0.33210109  0.52449482     0.74500
O791        O  0.84886464  0.26146999  0.48622156    -0.39000
O792        O  0.84904955  0.25417534  0.52818829    -0.38900
O793        O  0.95354693  0.34691454  0.50664433    -0.39600
O794        O  0.95311447  0.33558165  0.54769136    -0.39700
C795        C  0.77736978  0.42647389  0.42330906    -0.12000
C796        C  0.80113860  0.43226547  0.41072943     0.05100
C797        C  0.82430412  0.41923987  0.41872202    -0.07200
C798        C  0.82325693  0.40085186  0.43882293    -0.08000
C799        C  0.79956199  0.39535320  0.45167349    -0.02500
C800        C  0.77643301  0.40849767  0.44379440     0.04300
N801        N  0.75213426  0.40505447  0.45728466     0.66800
H802        H  0.75946157  0.43654850  0.41782215     0.15700
H803        H  0.84128149  0.39122290  0.44472939     0.15400
N804        N  0.84927116  0.42513469  0.40747430     0.74500
O805        O  0.74699452  0.41922200  0.47674450    -0.39000
O806        O  0.73395190  0.39210969  0.44670540    -0.38900
O807        O  0.86441847  0.44086256  0.41893075    -0.39600
O808        O  0.85807700  0.41116882  0.38921679    -0.39700
C809        C  0.89596970  0.49518830  0.33404259    -0.12000
C810        C  0.87341494  0.48969922  0.31915416     0.05100
C811        C  0.87614960  0.48501440  0.29210569    -0.07200
C812        C  0.90092752  0.48716300  0.28040043    -0.08000
C813        C  0.92338787  0.49336009  0.29522839    -0.02500
C814        C  0.92075537  0.49686289  0.32247362     0.04300
N815        N  0.94289043  0.50252079  0.33877246     0.66800
H816        H  0.89441670  0.49850881  0.35487110     0.15700
H817        H  0.90254188  0.48391665  0.25956910     0.15400
N818        N  0.85406987  0.47826873  0.27614838     0.74500
O819        O  0.94941405  0.52585882  0.34254070    -0.39000
O820        O  0.95212675  0.48500758  0.35347341    -0.38900
O821        O  0.84472044  0.49473639  0.26033940    -0.39600
O822        O  0.84744952  0.45474091  0.27413081    -0.39700
C823        C  0.78090728  0.44005969  0.59355006    -0.12000
C824        C  0.79678526  0.43652208  0.61580014     0.05100
C825        C  0.80956445  0.41234895  0.61941668    -0.07200
C826        C  0.80730825  0.39295841  0.60028496    -0.08000
C827        C  0.79257208  0.39711710  0.57735671    -0.02500
C828        C  0.77861950  0.42073299  0.57450200     0.04300
N829        N  0.76234650  0.42572226  0.55219818     0.66800
H830        H  0.77048361  0.45819395  0.59055435     0.15700
H831        H  0.81806165  0.37496451  0.60295735     0.15400
N832        N  0.82563496  0.40735963  0.64185085     0.74500
O833        O  0.73877885  0.41811125  0.55219087    -0.39000
O834        O  0.76973113  0.44188555  0.53520201    -0.38900
O835        O  0.81757124  0.39192587  0.65921752    -0.39600
O836        O  0.84959836  0.41365554  0.64148889    -0.39700
C837        C  0.88345180  0.49677264  0.72450751    -0.12000
C838        C  0.88142527  0.50010124  0.69737098     0.05100
C839        C  0.90457181  0.50355609  0.68263665    -0.07200
C840        C  0.92909093  0.50333831  0.69517949    -0.08000
C841        C  0.93114391  0.49979292  0.72234704    -0.02500
C842        C  0.90791716  0.49655703  0.73705165     0.04300
N843        N  0.90866943  0.49271098  0.76469930     0.66800
H844        H  0.86592798  0.49409441  0.73613987     0.15700
H845        H  0.94658702  0.50614373  0.68354333     0.15400
N846        N  0.90357426  0.50830057  0.65512338     0.74500
O847        O  0.90564888  0.51195017  0.77967665    -0.39000
O848        O  0.90641055  0.47003359  0.77378862    -0.38900
O849        O  0.90568470  0.53126655  0.64676549    -0.39600
O850        O  0.90621947  0.48957163  0.63944040    -0.39700
C851        C  0.82454491  0.59754193  0.58798239    -0.12000
C852        C  0.80218448  0.59988794  0.57194963     0.05100
C853        C  0.77997859  0.58440240  0.57748544    -0.07200
C854        C  0.78092152  0.56642711  0.59803509    -0.08000
C855        C  0.80370557  0.56331379  0.61333386    -0.02500
C856        C  0.82551468  0.57952043  0.60845199     0.04300
N857        N  0.84901664  0.57774907  0.62375159     0.66800
H858        H  0.84170769  0.60937849  0.58431704     0.15700
H859        H  0.76394491  0.55425662  0.60143915     0.15400
N860        N  0.75658411  0.58595925  0.56199677     0.74500
O861        O  0.86791375  0.56404082  0.61565985    -0.39000
O862        O  0.85293858  0.59394849  0.64184359    -0.38900
O863        O  0.75303172  0.56984021  0.54375371    -0.39600
O864        O  0.73744699  0.59939832  0.56999276    -0.39700
C865        C  0.78001339  0.57874505  0.44446298    -0.12000
C866        C  0.80109841  0.59630786  0.44425438     0.05100
C867        C  0.81996696  0.59442292  0.42416477    -0.07200
C868        C  0.81788140  0.57471003  0.40541123    -0.08000
C869        C  0.79727478  0.55658964  0.40619484    -0.02500
C870        C  0.77793237  0.55905673  0.42577515     0.04300
N871        N  0.75616084  0.54163072  0.42728181     0.66800
H872        H  0.76516668  0.57994442  0.45952630     0.15700
H873        H  0.83293980  0.57319721  0.39058860     0.15400
N874        N  0.84186394  0.61170902  0.42294207     0.74500
O875        O  0.75751920  0.52220089  0.44229126    -0.39000
O876        O  0.73405469  0.54871931  0.41849013    -0.38900
O877        O  0.86422738  0.60399011  0.43046244    -0.39600
O878        O  0.83999588  0.63232776  0.40970091    -0.39700
C879        C  0.87564532  0.71511825  0.51069217    -0.12000
C880        C  0.87696849  0.68789248  0.51199523     0.05100
C881        C  0.90183297  0.67579111  0.51403254    -0.07200
C882        C  0.92466504  0.69095949  0.51428062    -0.08000
C883        C  0.92335808  0.71821975  0.51262269    -0.02500
C884        C  0.89844678  0.73027337  0.51082469     0.04300
N885        N  0.89583631  0.75780678  0.50835123     0.66800
H886        H  0.85678337  0.72478160  0.50894536     0.15700
H887        H  0.94351426  0.68127304  0.51601518     0.15400
N888        N  0.90430494  0.64824902  0.51674434     0.74500
O889        O  0.89604441  0.76798470  0.48590627    -0.39000
O890        O  0.88795839  0.77097373  0.52760260    -0.38900
O891        O  0.91107039  0.63474898  0.49730646    -0.39600
O892        O  0.90510506  0.63834678  0.53930805    -0.39700
C893        C  0.00154143  0.83065418  0.41190588    -0.12000
C894        C  0.99743936  0.81481424  0.38988966     0.05100
C895        C  0.99297723  0.78800834  0.39372340    -0.07200
C896        C  0.99228161  0.77778530  0.41909332    -0.08000
C897        C  0.99604174  0.79367972  0.44111356    -0.02500
C898        C  0.00092802  0.82041072  0.43727697     0.04300
N899        N  0.00532887  0.83752843  0.45882341     0.66800
H900        H  0.00512369  0.85123248  0.40951131     0.15700
H901        H  0.98873906  0.75719986  0.42148795     0.15400
N902        N  0.98932810  0.77073335  0.37217448     0.74500
O903        O  0.02856934  0.84244446  0.46596334    -0.39000
O904        O  0.98667249  0.85144057  0.46711871    -0.38900
O905        O  0.00844361  0.75714374  0.36437713    -0.39600
O906        O  0.96631002  0.76492599  0.36501734    -0.39700
C907        C  0.90778467  0.93522174  0.29421602    -0.12000
C908        C  0.89520839  0.94108381  0.31788321     0.05100
C909        C  0.90052963  0.92539710  0.33997693    -0.07200
C910        C  0.91930651  0.90546065  0.33839467    -0.08000
C911        C  0.93276024  0.90038144  0.31498987    -0.02500
C912        C  0.92608031  0.91492325  0.29248201     0.04300
N913        N  0.93775757  0.90955087  0.26769753     0.66800
H914        H  0.90350609  0.94653453  0.27686506     0.15700
H915        H  0.92383784  0.89436532  0.35582482     0.15400
N916        N  0.88779978  0.92989391  0.36442668     0.74500
O917        O  0.92841706  0.89166926  0.25361233    -0.39000
O918        O  0.95367116  0.92556537  0.25789601    -0.38900
O919        O  0.87026128  0.91437514  0.37206443    -0.39600
O920        O  0.89760552  0.94584767  0.38041936    -0.39700
C921        C  0.80564865  0.02091555  0.43749166    -0.12000
C922        C  0.78203011  0.00709396  0.43990024     0.05100
C923        C  0.77107886  0.99520364  0.41752425    -0.07200
C924        C  0.78405549  0.99689176  0.39351496    -0.08000
C925        C  0.80782585  0.01047252  0.39114936    -0.02500
C926        C  0.81848800  0.02284466  0.41342466     0.04300
N927        N  0.84280960  0.03663556  0.41226794     0.66800
H928        H  0.81428805  0.03026471  0.45440342     0.15700
H929        H  0.77559778  0.98721068  0.37670478     0.15400
N930        N  0.74746049  0.98031439  0.41899719     0.74500
O931        O  0.84259969  0.06094056  0.40901776    -0.39000
O932        O  0.86379810  0.02549184  0.41935431    -0.38900
O933        O  0.72588587  0.99054332  0.41227820    -0.39600
O934        O  0.74891678  0.95597940  0.42169162    -0.39700
C935        C  0.92268363  0.10614579  0.30204043    -0.12000
C936        C  0.94636010  0.10157564  0.31565988     0.05100
C937        C  0.94903688  0.07833219  0.33019648    -0.07200
C938        C  0.92852319  0.06036921  0.33074267    -0.08000
C939        C  0.90494426  0.06483208  0.31713740    -0.02500
C940        C  0.90199873  0.08811645  0.30279670     0.04300
N941        N  0.87795401  0.09406347  0.28948635     0.66800
H942        H  0.92007282  0.12390900  0.29094357     0.15700
H943        H  0.93123452  0.04265354  0.34190499     0.15400
N944        N  0.97239716  0.07256115  0.34472216     0.74500
O945        O  0.85814906  0.10155729  0.30226002    -0.39000
O946        O  0.87599053  0.09027289  0.26519382    -0.38900
O947        O  0.97324779  0.07755444  0.36885585    -0.39600
O948        O  0.98972817  0.05802997  0.33482436    -0.39700
C949        C  0.00077517  0.17642323  0.40766519    -0.12000
C950        C  0.99731692  0.19170694  0.38518267     0.05100
C951        C  0.99189350  0.21844140  0.38797134    -0.07200
C952        C  0.99103602  0.22949398  0.41293668    -0.08000
C953        C  0.99546263  0.21438252  0.43543606    -0.02500
C954        C  0.99979040  0.18740531  0.43261575     0.04300
N955        N  0.00361529  0.17083196  0.45473452     0.66800
H956        H  0.00453390  0.15578116  0.40592028     0.15700
H957        H  0.98751309  0.25017401  0.41460960     0.15400
N958        N  0.98854038  0.23493774  0.36572340     0.74500
O959        O  0.98453838  0.15770640  0.46321794    -0.39000
O960        O  0.02669058  0.16500695  0.46181651    -0.38900
O961        O  0.96574314  0.24228099  0.35919731    -0.39600
O962        O  0.00829391  0.24608967  0.35600757    -0.39700
C963        C  0.07180556  0.09123095  0.28213457    -0.12000
C964        C  0.07287717  0.11014200  0.30187670     0.05100
C965        C  0.09350367  0.10900658  0.32043282    -0.07200
C966        C  0.11079933  0.08783162  0.32049051    -0.08000
C967        C  0.10818964  0.06770028  0.30217781    -0.02500
C968        C  0.08926942  0.07018781  0.28205318     0.04300
N969        N  0.08709884  0.05134901  0.26165951     0.66800
H970        H  0.05658633  0.09206570  0.26730086     0.15700
H971        H  0.12564961  0.08667862  0.33566976     0.15400
N972        N  0.09656635  0.12850313  0.34007789     0.74500
O973        O  0.07033171  0.03342675  0.26354323    -0.39000
O974        O  0.09751520  0.05590508  0.23978916    -0.38900
O975        O  0.08938757  0.12383537  0.36318913    -0.39600
O976        O  0.11110310  0.14782175  0.33562687    -0.39700
C977        C  0.07698414  0.90215969  0.33256699    -0.12000
C978        C  0.06057554  0.89980004  0.31057870     0.05100
C979        C  0.06425725  0.91668786  0.28918451    -0.07200
C980        C  0.08380473  0.93569289  0.29027684    -0.08000
C981        C  0.09950644  0.93877669  0.31267761    -0.02500
C982        C  0.09601716  0.92168608  0.33400003     0.04300
N983        N  0.11093532  0.92432660  0.35758526     0.66800
H984        H  0.07422739  0.88957760  0.34929664     0.15700
H985        H  0.08615966  0.94857046  0.27371527     0.15400
N986        N  0.04821075  0.91502603  0.26626412     0.74500
O987        O  0.10243961  0.93887338  0.37553697    -0.39000
O988        O  0.12908251  0.90828739  0.36259939    -0.38900
O989        O  0.02993088  0.93132511  0.26281938    -0.39600
O990        O  0.05570493  0.90117760  0.24734802    -0.39700
C991        C  0.99034811  0.77976302  0.60921131    -0.12000
C992        C  0.99280525  0.79538528  0.58682672     0.05100
C993        C  0.99593194  0.82245334  0.58994930    -0.07200
C994        C  0.99713069  0.83317111  0.61505858    -0.08000
C995        C  0.99497719  0.81752244  0.63745418    -0.02500
C996        C  0.99113352  0.79052909  0.63432668     0.04300
N997        N  0.98809632  0.77366270  0.65631352     0.66800
H998        H  0.98762323  0.75900059  0.60727312     0.15700
H999        H  0.99986037  0.85393555  0.61696348     0.15400
N1000       N  0.99856135  0.83935868  0.56795316     0.74500
O1001       O  0.96555645  0.77051797  0.66604009    -0.39000
O1002       O  0.00633340  0.75801691  0.66220887    -0.38900
O1003       O  0.97986246  0.85441135  0.56191928    -0.39600
O1004       O  0.02100584  0.84306664  0.55822319    -0.39700
C1005       C  0.89833733  0.92724685  0.68997369    -0.12000
C1006       C  0.89459727  0.94218311  0.71262508     0.05100
C1007       C  0.90898682  0.93579586  0.73542057    -0.07200
C1008       C  0.92752499  0.91567358  0.73478475    -0.08000
C1009       C  0.93223698  0.90164612  0.71173842    -0.02500
C1010       C  0.91687152  0.90713396  0.68933537     0.04300
N1011       N  0.91995390  0.89275834  0.66564646     0.66800
H1012       H  0.88725854  0.93153102  0.67237234     0.15700
H1013       H  0.93891837  0.91166342  0.75225075     0.15400
N1014       N  0.90549723  0.94978831  0.75927350     0.74500
O1015       O  0.90542252  0.87337045  0.66140352    -0.39000
O1016       O  0.93286113  0.90246792  0.64704365    -0.38900
O1017       O  0.89130423  0.94025537  0.77701631    -0.39600
O1018       O  0.92065804  0.96842164  0.76463936    -0.39700
C1019       C  0.78487440  0.01183918  0.63175590    -0.12000
C1020       C  0.81171437  0.00571487  0.63368428     0.05100
C1021       C  0.82557277  0.99911996  0.61069578    -0.07200
C1022       C  0.81233945  0.99843293  0.58658789    -0.08000
C1023       C  0.78537690  0.00427147  0.58479278    -0.02500
C1024       C  0.77173003  0.01133357  0.60772558     0.04300
N1025       N  0.74459182  0.01859403  0.60701258     0.66800
H1026       H  0.77392515  0.01728574  0.64901272     0.15700
H1027       H  0.82320629  0.99305264  0.56925928     0.15400
N1028       N  0.85288962  0.99252123  0.61144413     0.74500
O1029       O  0.72736393  0.00259561  0.61432815    -0.39000
O1030       O  0.73835537  0.04211258  0.60364240    -0.38900
O1031       O  0.85967877  0.96901760  0.61366112    -0.39600
O1032       O  0.86972745  0.00918942  0.60475501    -0.39700
C1033       C  0.08338637  0.90097079  0.70254392    -0.12000
C1034       C  0.05919817  0.90708781  0.71426719     0.05100
C1035       C  0.05575331  0.93211052  0.72515777    -0.07200
C1036       C  0.07607538  0.95032592  0.72380911    -0.08000
C1037       C  0.09991142  0.94453591  0.71129093    -0.02500
C1038       C  0.10360508  0.91937251  0.70088675     0.04300
N1039       N  0.12760111  0.91214218  0.68836962     0.66800
H1040       H  0.08653992  0.88191749  0.69415764     0.15700
H1041       H  0.07268966  0.96951268  0.73180157     0.15400
N1042       N  0.03141762  0.93987917  0.73671343     0.74500
O1043       O  0.14604319  0.90247809  0.70182300    -0.39000
O1044       O  0.12824681  0.91026021  0.66378814    -0.38900
O1045       O  0.02988975  0.94203533  0.76122754    -0.39600
O1046       O  0.01368737  0.94978621  0.72250125    -0.39700
C1047       C  0.07251389  0.09922040  0.72418898    -0.12000
C1048       C  0.06290729  0.10886498  0.70032053     0.05100
C1049       C  0.07406678  0.09970373  0.67680481    -0.07200
C1050       C  0.09364080  0.08054214  0.67758841    -0.08000
C1051       C  0.10252090  0.07017686  0.70145598    -0.02500
C1052       C  0.09215329  0.08017924  0.72499051     0.04300
N1053       N  0.10095531  0.07103629  0.74992823     0.66800
H1054       H  0.06448407  0.10617997  0.74246539     0.15700
H1055       H  0.10141935  0.07330215  0.65931552     0.15400
N1056       N  0.06545403  0.10913971  0.65191515     0.74500
O1057       O  0.12122512  0.08086738  0.76017651    -0.39000
O1058       O  0.08581525  0.05739837  0.76375543    -0.38900
O1059       O  0.07896901  0.12598670  0.64015421    -0.39600
O1060       O  0.04771932  0.09709672  0.63961922    -0.39700
C1061       C  0.91377244  0.11131043  0.69694469    -0.12000
C1062       C  0.93634672  0.10807788  0.71257068     0.05100
C1063       C  0.93798403  0.08626356  0.72925050    -0.07200
C1064       C  0.91784662  0.06783212  0.72927434    -0.08000
C1065       C  0.89586282  0.07034634  0.71274859    -0.02500
C1066       C  0.89365556  0.09271038  0.69683170     0.04300
N1067       N  0.87163344  0.09652467  0.67980806     0.66800
H1068       H  0.91204745  0.12793688  0.68408440     0.15700
H1069       H  0.91990962  0.05101758  0.74183863     0.15400
N1070       N  0.96015453  0.08215606  0.74601399     0.74500
O1071       O  0.85201899  0.10930087  0.68775972    -0.39000
O1072       O  0.87398563  0.09187940  0.65571212    -0.38900
O1073       O  0.95885458  0.08893112  0.76967292    -0.39600
O1074       O  0.97839743  0.06714912  0.73878481    -0.39700
C1075       C  0.00760303  0.23168694  0.60122368    -0.12000
C1076       C  0.99951229  0.21685569  0.57961334     0.05100
C1077       C  0.99167178  0.19088222  0.58357257    -0.07200
C1078       C  0.99162688  0.18048181  0.60879098    -0.08000
C1079       C  0.99959464  0.19531418  0.63043901    -0.02500
C1080       C  0.00789725  0.22115399  0.62643926     0.04300
N1081       N  0.01642491  0.23712881  0.64765454     0.66800
H1082       H  0.01385381  0.25160103  0.59860307     0.15700
H1083       H  0.98541112  0.16054845  0.61134833     0.15400
N1084       N  0.98351580  0.17475557  0.56232395     0.74500
O1085       O  0.04056775  0.23793804  0.65339501    -0.39000
O1086       O  0.00119624  0.25443924  0.65639155    -0.38900
O1087       O  0.99963341  0.15890490  0.55244402    -0.39600
O1088       O  0.95937043  0.17284761  0.55689488    -0.39700
C1089       C  0.97415806  0.22288716  0.77080135    -0.12000
C1090       C  0.99843574  0.21345453  0.76176081     0.05100
C1091       C  0.02181319  0.22298497  0.77320290    -0.07200
C1092       C  0.02051466  0.24167830  0.79296182    -0.08000
C1093       C  0.99628079  0.25142756  0.80175023    -0.02500
C1094       C  0.97287405  0.24175862  0.79048165     0.04300
N1095       N  0.94763987  0.25115836  0.79830982     0.66800
H1096       H  0.95598246  0.21587402  0.76232139     0.15700
H1097       H  0.03874018  0.24871246  0.80132038     0.15400
N1098       N  0.04712200  0.21419290  0.76489613     0.74500
O1099       O  0.93767674  0.27043224  0.78661717    -0.39000
O1100       O  0.93325830  0.23714073  0.81254480    -0.38900
O1101       O  0.06061380  0.22827896  0.74988555    -0.39600
O1102       O  0.05790977  0.19525925  0.77643318    -0.39700
C1103       C  0.99673075  0.42673379  0.81951217    -0.12000
C1104       C  0.00199360  0.42723860  0.79259781     0.05100
C1105       C  0.00612745  0.40347784  0.77936373    -0.07200
C1106       C  0.00524550  0.38001994  0.79322300    -0.08000
C1107       C  0.99983032  0.37957869  0.82011644    -0.02500
C1108       C  0.99555192  0.40330028  0.83327005     0.04300
N1109       N  0.99063291  0.40411733  0.86073294     0.66800
H1110       H  0.99356932  0.44466393  0.83009860     0.15700
H1111       H  0.00846623  0.36203186  0.78274899     0.15400
N1112       N  0.01101073  0.40265759  0.75188192     0.74500
O1113       O  0.00967421  0.40658456  0.87642049    -0.39000
O1114       O  0.96748905  0.40778472  0.86877046    -0.38900
O1115       O  0.03398756  0.39816631  0.74378229    -0.39600
O1116       O  0.99186675  0.40088056  0.73621794    -0.39700
C1117       C  0.91410022  0.30598078  0.90774423    -0.12000
C1118       C  0.93974571  0.29745091  0.91346008     0.05100
C1119       C  0.94525826  0.28751480  0.93866599    -0.07200
C1120       C  0.92556288  0.28720018  0.95766437    -0.08000
C1121       C  0.90015525  0.29658084  0.95224627    -0.02500
C1122       C  0.89437742  0.30563962  0.92678246     0.04300
N1123       N  0.86872238  0.31477257  0.91984972     0.66800
H1124       H  0.90937132  0.31348394  0.88851954     0.15700
H1125       H  0.93044814  0.28001857  0.97697798     0.15400
N1126       N  0.97085107  0.27816917  0.94562093     0.74500
O1127       O  0.86341256  0.33863824  0.92201490    -0.39000
O1128       O  0.85383450  0.30044954  0.90636580    -0.38900
O1129       O  0.98558924  0.29191438  0.95986500    -0.39600
O1130       O  0.97649875  0.25455834  0.94199334    -0.39700
C1131       C  0.82562340  0.39527806  0.00144172    -0.12000
C1132       C  0.81350392  0.37503369  0.01531415     0.05100
C1133       C  0.79009937  0.38028322  0.02910836    -0.07200
C1134       C  0.77903716  0.40515903  0.02826458    -0.08000
C1135       C  0.79094579  0.42530897  0.01412420    -0.02500
C1136       C  0.81467354  0.42026030  0.00082189     0.04300
N1137       N  0.82753777  0.43994674  0.98593147     0.66800
H1138       H  0.84363652  0.39172416  0.99080893     0.15700
H1139       H  0.76097838  0.40868907  0.03883595     0.15400
N1140       N  0.77741725  0.36077441  0.04438999     0.74500
O1141       O  0.84500404  0.45369685  0.99667797    -0.39000
O1142       O  0.82567785  0.43970142  0.96132877    -0.38900
O1143       O  0.78105627  0.36021031  0.06879797    -0.39600
O1144       O  0.75894699  0.34770750  0.03447358    -0.39700
C1145       C  0.98806349  0.21587654  0.24092594    -0.12000
C1146       C  0.01095262  0.21161509  0.25574501     0.05100
C1147       C  0.03324081  0.22723603  0.25103793    -0.07200
C1148       C  0.03219183  0.24658467  0.23177361    -0.08000
C1149       C  0.00915979  0.25095992  0.21714201    -0.02500
C1150       C  0.98691421  0.23534393  0.22193125     0.04300
N1151       N  0.96297560  0.23876904  0.20760312     0.66800
H1152       H  0.97069856  0.20424189  0.24428111     0.15700
H1153       H  0.04948263  0.25831260  0.22837839     0.15400
N1154       N  0.05718716  0.22359018  0.26530858     0.74500
O1155       O  0.95816083  0.22430359  0.18827514    -0.39000
O1156       O  0.94476235  0.25242199  0.21719502    -0.38900
O1157       O  0.07450081  0.20835616  0.25649958    -0.39600
O1158       O  0.06321898  0.23937959  0.28319883    -0.39700
C1159       C  0.92288463  0.32081100  0.11405297    -0.12000
C1160       C  0.94216888  0.30125332  0.11360424     0.05100
C1161       C  0.93943708  0.28050695  0.09574785    -0.07200
C1162       C  0.91835667  0.28022887  0.07813723    -0.08000
C1163       C  0.89976399  0.30040478  0.07770704    -0.02500
C1164       C  0.90181349  0.32057924  0.09631049     0.04300
N1165       N  0.88262204  0.34086797  0.09762795     0.66800
H1166       H  0.92445728  0.33670311  0.12781474     0.15700
H1167       H  0.91710569  0.26453378  0.06411372     0.15400
N1168       N  0.95797821  0.25960831  0.09501287     0.74500
O1169       O  0.86193266  0.33737261  0.11069230    -0.39000
O1170       O  0.88862714  0.36353624  0.09043525    -0.38900
O1171       O  0.95327080  0.23899115  0.10747589    -0.39600
O1172       O  0.97575465  0.25961770  0.07789012    -0.39700
C1173       C  0.00032505  0.40292180  0.18066718    -0.12000
C1174       C  0.00720065  0.38111805  0.19582778     0.05100
C1175       C  0.01193850  0.38460183  0.22284744    -0.07200
C1176       C  0.00946770  0.40929456  0.23404338    -0.08000
C1177       C  0.00226609  0.43101932  0.21898081    -0.02500
C1178       C  0.99781401  0.42765294  0.19191608     0.04300
N1179       N  0.99025294  0.44894261  0.17557091     0.66800
H1180       H  0.99656184  0.40079139  0.15994268     0.15700
H1181       H  0.01307458  0.41135420  0.25480547     0.15400
N1182       N  0.01899264  0.36332047  0.23942010     0.74500
O1183       O  0.00763052  0.46125798  0.16317047    -0.39000
O1184       O  0.96634723  0.45201964  0.16958194    -0.38900
O1185       O  0.04274234  0.36021202  0.24598438    -0.39600
O1186       O  0.00127059  0.35159764  0.25192170    -0.39700
C1187       C  0.08678338  0.28413496  0.06675003    -0.12000
C1188       C  0.10902536  0.30005517  0.06879569     0.05100
C1189       C  0.11184681  0.31616253  0.09098951    -0.07200
C1190       C  0.09218337  0.31660954  0.11009362    -0.08000
C1191       C  0.06965412  0.30112477  0.10765799    -0.02500
C1192       C  0.06719231  0.28454916  0.08579726     0.04300
N1193       N  0.04398025  0.26959678  0.08139176     0.66800
H1194       H  0.08406949  0.27181032  0.04981353     0.15700
H1195       H  0.09440777  0.32941656  0.12672983     0.15400
N1196       N  0.13398021  0.33293028  0.09403051     0.74500
O1197       O  0.02676158  0.27812058  0.06574222    -0.39000
O1198       O  0.04379171  0.24588672  0.08767489    -0.38900
O1199       O  0.13203884  0.35650459  0.08749019    -0.39600
O1200       O  0.15334361  0.32557125  0.10767252    -0.39700
C1201       C  0.07658289  0.28435674  0.91139483    -0.12000
C1202       C  0.06542196  0.30843414  0.90456504     0.05100
C1203       C  0.07566590  0.33129131  0.91588557    -0.07200
C1204       C  0.09575016  0.32957218  0.93451353    -0.08000
C1205       C  0.10611269  0.30541716  0.94221665    -0.02500
C1206       C  0.09675191  0.28265647  0.92999484     0.04300
N1207       N  0.10715930  0.25762408  0.93640108     0.66800
H1208       H  0.06923155  0.26660654  0.90274266     0.15700
H1209       H  0.10279151  0.34731592  0.94343669     0.15400
N1210       N  0.06552174  0.35639439  0.90929633     0.74500
O1211       O  0.09472261  0.24310714  0.95189307    -0.39000
O1212       O  0.12528479  0.24809249  0.92258859    -0.38900
O1213       O  0.05045354  0.36797945  0.92502154    -0.39600
O1214       O  0.07542842  0.36880839  0.89049338    -0.39700
C1215       C  0.02118661  0.76809461  0.79780827    -0.12000
C1216       C  0.99785525  0.75403432  0.80154636     0.05100
C1217       C  0.97499110  0.76170388  0.78775109    -0.07200
C1218       C  0.97590640  0.78284360  0.77061182    -0.08000
C1219       C  0.99929200  0.79671775  0.76659784    -0.02500
C1220       C  0.02209269  0.78926965  0.78060238     0.04300
N1221       N  0.04626188  0.80308917  0.77791127     0.66800
H1222       H  0.03888421  0.76271488  0.80833537     0.15700
H1223       H  0.95818779  0.78811001  0.76005748     0.15400
N1224       N  0.95064446  0.74822151  0.79068493     0.74500
O1225       O  0.05029569  0.82302198  0.79168810    -0.39000
O1226       O  0.06524673  0.79261684  0.76605374    -0.38900
O1227       O  0.93276954  0.75790770  0.80471048    -0.39600
O1228       O  0.94526355  0.72957572  0.77559672    -0.39700
C1229       C  0.01419642  0.60000365  0.82920499    -0.12000
C1230       C  0.00652525  0.62176880  0.81439899     0.05100
C1231       C  0.00123128  0.61847378  0.78747968    -0.07200
C1232       C  0.00255840  0.59364901  0.77630205    -0.08000
C1233       C  0.00926831  0.57173195  0.79136008    -0.02500
C1234       C  0.01572578  0.57523765  0.81799325     0.04300
N1235       N  0.02389829  0.55393983  0.83403632     0.66800
H1236       H  0.01878369  0.60208097  0.84977422     0.15700
H1237       H  0.99790927  0.59153583  0.75575022     0.15400
N1238       N  0.99458732  0.64003650  0.77110403     0.74500
O1239       O  0.04801737  0.54828396  0.83563232    -0.39000
O1240       O  0.00800340  0.54428122  0.85020970    -0.38900
O1241       O  0.01207757  0.65011163  0.75693582    -0.39600
O1242       O  0.97071625  0.64534060  0.76679856    -0.39700
C1243       C  0.92567308  0.66764627  0.91218472    -0.12000
C1244       C  0.93135347  0.69122851  0.89969762     0.05100
C1245       C  0.91722061  0.71375566  0.90693323    -0.07200
C1246       C  0.89875419  0.71251701  0.92714932    -0.08000
C1247       C  0.89418975  0.68919727  0.94065018    -0.02500
C1248       C  0.90747404  0.66644758  0.93254280     0.04300
N1249       N  0.90331962  0.64202120  0.94513010     0.66800
H1250       H  0.93621600  0.65012343  0.90691050     0.15700
H1251       H  0.88853797  0.73011319  0.93277887     0.15400
N1252       N  0.92149138  0.73810356  0.89421742     0.74500
O1253       O  0.88743985  0.62599711  0.93519664    -0.39000
O1254       O  0.91914968  0.63450486  0.96264722    -0.38900
O1255       O  0.90522586  0.74592269  0.87723929    -0.39600
O1256       O  0.93780492  0.75392273  0.90379562    -0.39700
C1257       C  0.78369331  0.61577831  0.00709505    -0.12000
C1258       C  0.81116746  0.61726961  0.00533998     0.05100
C1259       C  0.82602229  0.59406321  0.00464750    -0.07200
C1260       C  0.81331934  0.57004551  0.00620594    -0.08000
C1261       C  0.78585606  0.56851733  0.00834386    -0.02500
C1262       C  0.77097630  0.59175417  0.00875312     0.04300
N1263       N  0.74305314  0.59145660  0.01177276     0.66800
H1264       H  0.77200717  0.63337540  0.00787382     0.15700
H1265       H  0.82506826  0.55249223  0.00541511     0.15400
N1266       N  0.85391411  0.59441813  0.00136300     0.74500
O1267       O  0.73336250  0.59174572  0.03444182    -0.39000
O1268       O  0.72847476  0.59629457  0.99234472    -0.38900
O1269       O  0.86866760  0.59049469  0.02086534    -0.39600
O1270       O  0.86336296  0.59274979  0.97865527    -0.39700
C1271       C  0.06911699  0.70329525  0.95599445    -0.12000
C1272       C  0.09535452  0.69751725  0.94979413     0.05100
C1273       C  0.10196968  0.69295975  0.92338175    -0.07200
C1274       C  0.08228880  0.69347902  0.90405354    -0.08000
C1275       C  0.05589998  0.69854246  0.91044607    -0.02500
C1276       C  0.04948306  0.70371702  0.93680854     0.04300
N1277       N  0.02304167  0.70885165  0.94473413     0.66800
H1278       H  0.06351270  0.70682235  0.97607186     0.15700
H1279       H  0.08770784  0.68965792  0.88398467     0.15400
N1280       N  0.12849712  0.68792412  0.91573564     0.74500
O1281       O  0.00815700  0.69012852  0.95046016    -0.39000
O1282       O  0.01652449  0.73161882  0.95122337    -0.38900
O1283       O  0.13508984  0.66530936  0.90879586    -0.39600
O1284       O  0.14355230  0.70674374  0.91084876    -0.39700
C1285       C  0.97292843  0.78025765  0.25475681    -0.12000
C1286       C  0.99675408  0.79309971  0.25967891     0.05100
C1287       C  0.01907554  0.78633014  0.24477397    -0.07200
C1288       C  0.01731326  0.76660487  0.22596895    -0.08000
C1289       C  0.99345886  0.75369484  0.22112610    -0.02500
C1290       C  0.97101251  0.76097527  0.23560205     0.04300
N1291       N  0.94599600  0.74919902  0.23110849     0.66800
H1292       H  0.95548295  0.78527696  0.26573771     0.15700
H1293       H  0.03467321  0.76169054  0.21481164     0.15400
N1294       N  0.04342575  0.79982909  0.24773558     0.74500
O1295       O  0.93778506  0.73216581  0.24681008    -0.39000
O1296       O  0.93001602  0.75983948  0.21546211    -0.38900
O1297       O  0.06148883  0.79007190  0.26161942    -0.39600
O1298       O  0.04861065  0.81855364  0.23269165    -0.39700
C1299       C  0.08547918  0.66820933  0.08560509    -0.12000
C1300       C  0.09577744  0.69151576  0.07567490     0.05100
C1301       C  0.08630390  0.71532499  0.08578076    -0.07200
C1302       C  0.06652810  0.71539592  0.10475080    -0.08000
C1303       C  0.05573224  0.69214566  0.11414369    -0.02500
C1304       C  0.06557140  0.66829599  0.10450272     0.04300
N1305       N  0.05479187  0.64398560  0.11265116     0.66800
H1306       H  0.09224629  0.64975040  0.07805520     0.15700
H1307       H  0.05942658  0.73387094  0.11196034     0.15400
N1308       N  0.09614668  0.73971844  0.07679362     0.74500
O1309       O  0.03392797  0.63579765  0.10209764    -0.39000
O1310       O  0.06851155  0.62871492  0.12641302    -0.38900
O1311       O  0.08123634  0.75476681  0.06403436    -0.39600
O1312       O  0.11754021  0.74825290  0.08589893    -0.39700
C1313       C  0.88930095  0.69089024  0.09257626    -0.12000
C1314       C  0.89414444  0.70512756  0.06967996     0.05100
C1315       C  0.91637701  0.72149079  0.06875934    -0.07200
C1316       C  0.93390463  0.72211263  0.08992764    -0.08000
C1317       C  0.92995895  0.70645123  0.11206758    -0.02500
C1318       C  0.90697474  0.69121421  0.11353834     0.04300
N1319       N  0.90210866  0.67446234  0.13526304     0.66800
H1320       H  0.87229164  0.67835555  0.09384021     0.15700
H1321       H  0.95129988  0.73410032  0.08847988     0.15400
N1322       N  0.92218441  0.73673275  0.04616045     0.74500
O1323       O  0.88588150  0.68132740  0.15254682    -0.39000
O1324       O  0.90962968  0.65109242  0.13430654    -0.38900
O1325       O  0.91739426  0.76080127  0.04638720    -0.39600
O1326       O  0.93713490  0.72753379  0.02882098    -0.39700
C1327       C  0.98954310  0.62248277  0.22670367    -0.12000
C1328       C  0.98845688  0.62418196  0.19935120     0.05100
C1329       C  0.98697430  0.60111176  0.18451516    -0.07200
C1330       C  0.98720012  0.57702201  0.19711576    -0.08000
C1331       C  0.98873190  0.57522553  0.22445924    -0.02500
C1332       C  0.98956956  0.59834889  0.23934871     0.04300
N1333       N  0.99093484  0.59782495  0.26724760     0.66800
H1334       H  0.99051058  0.63997859  0.23839448     0.15700
H1335       H  0.98648311  0.55960629  0.18529201     0.15400
N1336       N  0.98632900  0.60164159  0.15658685     0.74500
O1337       O  0.01312358  0.59772725  0.27838168    -0.39000
O1338       O  0.97067105  0.60318213  0.28037279    -0.38900
O1339       O  0.00695562  0.59644879  0.14396363    -0.39600
O1340       O  0.96445229  0.60194152  0.14485627    -0.39700
C1341       C  0.22182148  0.37797096  0.99621919    -0.12000
C1342       C  0.19449629  0.37649024  0.99964398     0.05100
C1343       C  0.17972470  0.39964191  0.00161215    -0.07200
C1344       C  0.19244511  0.42356964  0.00129001    -0.08000
C1345       C  0.21981717  0.42517985  0.99852432    -0.02500
C1346       C  0.23456946  0.40205199  0.99548870     0.04300
N1347       N  0.26237959  0.40253911  0.99158657     0.66800
H1348       H  0.23339494  0.36039678  0.99435135     0.15700
H1349       H  0.18065928  0.44101308  0.00308909     0.15400
N1350       N  0.15165610  0.39935198  0.00292320     0.74500
O1351       O  0.27758807  0.39737054  0.01044591    -0.39000
O1352       O  0.27130927  0.40250836  0.96860595    -0.38900
O1353       O  0.14044421  0.40322118  0.02453853    -0.39600
O1354       O  0.13840377  0.40069639  0.98205536    -0.39700
C1355       C  0.22369024  0.58915534  0.01813816    -0.12000
C1356       C  0.21114488  0.56792601  0.00632125     0.05100
C1357       C  0.18515266  0.57113701  0.99692969    -0.07200
C1358       C  0.17249457  0.59523802  0.99948987    -0.08000
C1359       C  0.18517637  0.61653913  0.01114951    -0.02500
C1360       C  0.21110552  0.61321876  0.02061675     0.04300
N1361       N  0.22530255  0.63421335  0.03215252     0.66800
H1362       H  0.24369535  0.58715640  0.02556158     0.15700
H1363       H  0.15259647  0.59734673  0.99190831     0.15400
N1364       N  0.17161567  0.55050993  0.98396368     0.74500
O1365       O  0.22677875  0.63590344  0.05671919    -0.39000
O1366       O  0.24054021  0.64758988  0.01817733    -0.38900
O1367       O  0.15349944  0.53859801  0.99570572    -0.39600
O1368       O  0.17392611  0.54794175  0.95954925    -0.39700
C1369       C  0.72658820  0.52329825  0.75807776    -0.12000
C1370       C  0.71129197  0.50093248  0.76185750     0.05100
C1371       C  0.71599362  0.47901911  0.74590896    -0.07200
C1372       C  0.73574879  0.47978523  0.72692419    -0.08000
C1373       C  0.75095888  0.50219263  0.72302244    -0.02500
C1374       C  0.74616097  0.52416284  0.73887899     0.04300
N1375       N  0.76095736  0.54752555  0.73591522     0.66800
H1376       H  0.72332378  0.54034080  0.77003126     0.15700
H1377       H  0.73884878  0.46279152  0.71485788     0.15400
N1378       N  0.70028332  0.45613746  0.74793641     0.74500
O1379       O  0.75222538  0.56535976  0.72130614    -0.39000
O1380       O  0.77927101  0.55248082  0.75184695    -0.38900
O1381       O  0.68101053  0.45314467  0.73262638    -0.39600
O1382       O  0.70871421  0.43699252  0.76094474    -0.39700
C1383       C  0.71298634  0.48788132  0.89234990    -0.12000
C1384       C  0.68766376  0.49868848  0.89058581     0.05100
C1385       C  0.67499841  0.50687117  0.91371937    -0.07200
C1386       C  0.68804067  0.50477812  0.93776452    -0.08000
C1387       C  0.71352212  0.49431702  0.93944126    -0.02500
C1388       C  0.72580698  0.48530909  0.91644126     0.04300
N1389       N  0.75086464  0.47264895  0.91719363     0.66800
H1390       H  0.72283823  0.48096993  0.87496888     0.15700
H1391       H  0.67817212  0.51159036  0.95517752     0.15400
N1392       N  0.64877852  0.51695002  0.91334871     0.74500
O1393       O  0.75222099  0.44910420  0.92399030    -0.39000
O1394       O  0.77034777  0.48308725  0.90622195    -0.38900
O1395       O  0.62993230  0.50235628  0.91964431    -0.39600
O1396       O  0.64514644  0.54118710  0.91218259    -0.39700
C1397       C  0.59126749  0.61127263  0.81157646    -0.12000
C1398       C  0.56828690  0.60740943  0.79677565     0.05100
C1399       C  0.56573311  0.58427205  0.78217306    -0.07200
C1400       C  0.58465871  0.56462214  0.78467193    -0.08000
C1401       C  0.60650601  0.56760063  0.80126616    -0.02500
C1402       C  0.61036556  0.59174482  0.81382585     0.04300
N1403       N  0.63301083  0.59653900  0.82971607     0.66800
H1404       H  0.59394947  0.62908178  0.82249468     0.15700
H1405       H  0.58169863  0.54659533  0.77419769     0.15400
N1406       N  0.54372793  0.58000811  0.76527634     0.74500
O1407       O  0.65226287  0.60862816  0.82014089    -0.39000
O1408       O  0.63155926  0.59365659  0.85416407    -0.38900
O1409       O  0.54530512  0.58635396  0.74150597    -0.39600
O1410       O  0.52533594  0.56533237  0.77260479    -0.39700
C1411       C  0.51803491  0.68375423  0.90276325    -0.12000
C1412       C  0.50632254  0.69642590  0.88132798     0.05100
C1413       C  0.49481562  0.72114114  0.88517671    -0.07200
C1414       C  0.49448732  0.73217645  0.91022420    -0.08000
C1415       C  0.50558350  0.71912629  0.93174776    -0.02500
C1416       C  0.51783792  0.69482688  0.92771613     0.04300
N1417       N  0.53074258  0.68132829  0.94857057     0.66800
H1418       H  0.52731380  0.66496981  0.90026834     0.15700
H1419       H  0.48528988  0.75098470  0.91283072     0.15400
N1420       N  0.48370011  0.73552004  0.86392213     0.74500
O1421       O  0.51933627  0.66257123  0.95960234    -0.39000
O1422       O  0.55498426  0.68488170  0.95249410    -0.38900
O1423       O  0.45905355  0.73622414  0.86102653    -0.39600
O1424       O  0.49778699  0.75166218  0.85182835    -0.39700
C1425       C  0.42471534  0.60409724  0.79620466    -0.12000
C1426       C  0.44499257  0.60265583  0.81487552     0.05100
C1427       C  0.44478816  0.58210090  0.83323367    -0.07200
C1428       C  0.42479713  0.56339955  0.83221357    -0.08000
C1429       C  0.40499175  0.56446041  0.81299886    -0.02500
C1430       C  0.40480101  0.58539849  0.79519685     0.04300
N1431       N  0.38406509  0.58855168  0.77652846     0.66800
H1432       H  0.42416799  0.61994459  0.78229598     0.15700
H1433       H  0.42533286  0.54745075  0.84600649     0.15400
N1434       N  0.46521476  0.57919013  0.85233029     0.74500
O1435       O  0.36277928  0.59906704  0.78353454    -0.39000
O1436       O  0.38895858  0.58618258  0.75248660    -0.38900
O1437       O  0.45971800  0.58077658  0.87631206    -0.39600
O1438       O  0.48723937  0.57009523  0.84556399    -0.39700
C1439       C  0.32615593  0.49259188  0.90188332    -0.12000
C1440       C  0.31368708  0.50548303  0.88102436     0.05100
C1441       C  0.28917499  0.51769029  0.88536134    -0.07200
C1442       C  0.27739391  0.51610866  0.91002864    -0.08000
C1443       C  0.28992249  0.50312666  0.93081289    -0.02500
C1444       C  0.31465002  0.49144609  0.92658187     0.04300
N1445       N  0.32801287  0.47752778  0.94685886     0.66800
H1446       H  0.34495629  0.48310939  0.89905621     0.15700
H1447       H  0.25852995  0.52541788  0.91301276     0.15400
N1448       N  0.27602770  0.53188377  0.86512269     0.74500
O1449       O  0.32411350  0.45346542  0.94946464    -0.39000
O1450       O  0.34718136  0.48797010  0.95849391    -0.38900
O1451       O  0.25568312  0.52254629  0.85455675    -0.39600
O1452       O  0.28167445  0.55546209  0.86144527    -0.39700
C1453       C  0.57196982  0.40949267  0.84088682    -0.12000
C1454       C  0.56480988  0.39821206  0.81691095     0.05100
C1455       C  0.57740202  0.40676224  0.79390082    -0.07200
C1456       C  0.59554862  0.42713106  0.79509518    -0.08000
C1457       C  0.60176504  0.43924838  0.81891046    -0.02500
C1458       C  0.59029125  0.42970195  0.84211541     0.04300
N1459       N  0.59686018  0.44024425  0.86712951     0.66800
H1460       H  0.56291458  0.40299493  0.85884679     0.15700
H1461       H  0.60446750  0.43375702  0.77711599     0.15400
N1462       N  0.57181581  0.39533230  0.76905687     0.74500
O1463       O  0.58197958  0.45705643  0.87730913    -0.39000
O1464       O  0.61376706  0.42882309  0.88117546    -0.38900
O1465       O  0.55520441  0.40597652  0.75407964    -0.39600
O1466       O  0.58722624  0.37833834  0.76001115    -0.39700
C1467       C  0.41584875  0.39682361  0.81469610    -0.12000
C1468       C  0.43974623  0.40051770  0.80155911     0.05100
C1469       C  0.44296969  0.42319536  0.78632009    -0.07200
C1470       C  0.42311620  0.44211737  0.78565780    -0.08000
C1471       C  0.39985610  0.43914171  0.80005106    -0.02500
C1472       C  0.39603108  0.41579840  0.81413509     0.04300
N1473       N  0.37255858  0.41126669  0.82869688     0.66800
H1474       H  0.41279196  0.37948876  0.82627160     0.15700
H1475       H  0.42642531  0.45968423  0.77451923     0.15400
N1476       N  0.46649005  0.42772844  0.77184356     0.74500
O1477       O  0.35417040  0.39831889  0.81847382    -0.39000
O1478       O  0.37253722  0.41518581  0.85304499    -0.38900
O1479       O  0.46681516  0.42305842  0.74763773    -0.39600
O1480       O  0.48462729  0.44117346  0.78186012    -0.39700
C1481       C  0.50417927  0.28505608  0.88992565    -0.12000
C1482       C  0.49637622  0.31122211  0.88804927     0.05100
C1483       C  0.48706948  0.32387221  0.91073554    -0.07200
C1484       C  0.48579396  0.31040174  0.93448729    -0.08000
C1485       C  0.49362204  0.28429783  0.93637558    -0.02500
C1486       C  0.50287875  0.27157681  0.91370850     0.04300
N1487       N  0.51155800  0.24514672  0.91454817     0.66800
H1488       H  0.51139142  0.27492107  0.87282182     0.15700
H1489       H  0.47877374  0.32059929  0.95163192     0.15400
N1490       N  0.47940788  0.35059162  0.91026838     0.74500
O1491       O  0.49552008  0.22700585  0.91008051    -0.39000
O1492       O  0.53505533  0.23987318  0.92062286    -0.38900
O1493       O  0.45531677  0.35645571  0.90914576    -0.39600
O1494       O  0.49598487  0.36780763  0.91625740    -0.39700
C1495       C  0.78218954  0.76027900  0.98537789    -0.12000
C1496       C  0.78728264  0.74582191  0.00814419     0.05100
C1497       C  0.77343244  0.75207499  0.03120192    -0.07200
C1498       C  0.75546313  0.77273486  0.03122985    -0.08000
C1499       C  0.75076820  0.78753707  0.00862278    -0.02500
C1500       C  0.76422620  0.78096532  0.98540897     0.04300
N1501       N  0.76056820  0.79549069  0.96185130     0.66800
H1502       H  0.79260915  0.75590401  0.96749391     0.15700
H1503       H  0.74513415  0.77717998  0.04914777     0.15400
N1504       N  0.77714697  0.73761293  0.05478101     0.74500
O1505       O  0.77611929  0.81380633  0.95658049    -0.39000
O1506       O  0.74562924  0.78675835  0.94419331    -0.38900
O1507       O  0.79229362  0.74631734  0.07227658    -0.39600
O1508       O  0.76133021  0.71960722  0.06033739    -0.39700
C1509       C  0.57525097  0.81542459  0.01780378    -0.12000
C1510       C  0.57339025  0.78997311  0.00804827     0.05100
C1511       C  0.59652224  0.77729848  0.99962879    -0.07200
C1512       C  0.62075818  0.78986366  0.00144382    -0.08000
C1513       C  0.62276436  0.81520350  0.01131834    -0.02500
C1514       C  0.59960596  0.82811777  0.01946527     0.04300
N1515       N  0.60028172  0.85417119  0.02909021     0.66800
H1516       H  0.55775070  0.82554175  0.02425049     0.15700
H1517       H  0.63812607  0.77964903  0.99479968     0.15400
N1518       N  0.59577756  0.75194970  0.98829169     0.74500
O1519       O  0.59556404  0.87276864  0.01366676    -0.39000
O1520       O  0.60007691  0.85815780  0.05342337    -0.38900
O1521       O  0.59481885  0.74966311  0.96374988    -0.39600
O1522       O  0.60147880  0.73242264  0.00214323    -0.39700
C1523       C  0.75901867  0.97899375  0.79408930    -0.12000
C1524       C  0.74836407  0.00240726  0.80354110     0.05100
C1525       C  0.75814882  0.02608468  0.79359779    -0.07200
C1526       C  0.77772046  0.02595611  0.77441791    -0.08000
C1527       C  0.78816800  0.00259735  0.76475043    -0.02500
C1528       C  0.77880315  0.97887197  0.77504135     0.04300
N1529       N  0.78950351  0.95448053  0.76690069     0.66800
H1530       H  0.75212561  0.96059162  0.80163352     0.15700
H1531       H  0.78467610  0.04438046  0.76698713     0.15400
N1532       N  0.74860104  0.05054823  0.80276483     0.74500
O1533       O  0.80956109  0.94546086  0.77838327    -0.39000
O1534       O  0.77625565  0.93993966  0.75203213    -0.38900
O1535       O  0.76225038  0.06346366  0.81876111    -0.39600
O1536       O  0.72960324  0.06138802  0.79110486    -0.39700
C1537       C  0.71739957  0.92725985  0.91836335    -0.12000
C1538       C  0.69277123  0.93606285  0.90950019     0.05100
C1539       C  0.66975436  0.92504233  0.92009440    -0.07200
C1540       C  0.67176798  0.90613368  0.93958719    -0.08000
C1541       C  0.69636388  0.89813418  0.94928019    -0.02500
C1542       C  0.71940357  0.90862802  0.93819487     0.04300
N1543       N  0.74496684  0.90145138  0.94745846     0.66800
H1544       H  0.73527000  0.93545988  0.91046563     0.15700
H1545       H  0.65383868  0.89836798  0.94779478     0.15400
N1546       N  0.64415123  0.93392937  0.91259396     0.74500
O1547       O  0.75947821  0.88719133  0.93353303    -0.39000
O1548       O  0.75478989  0.91328499  0.96674594    -0.38900
O1549       O  0.63051946  0.92056521  0.89696595    -0.39600
O1550       O  0.63335033  0.95196795  0.92539125    -0.39700
C1551       C  0.56969978  0.99231305  0.82180740    -0.12000
C1552       C  0.56947260  0.99088276  0.79438490     0.05100
C1553       C  0.59364460  0.99038446  0.78090688    -0.07200
C1554       C  0.61728944  0.99182972  0.79483363    -0.08000
C1555       C  0.61752203  0.99390762  0.82216450    -0.02500
C1556       C  0.59338583  0.99394439  0.83574237     0.04300
N1557       N  0.59248553  0.99536613  0.86363206     0.66800
H1558       H  0.55139886  0.99263495  0.83253604     0.15700
H1559       H  0.63558196  0.99156291  0.78408776     0.15400
N1560       N  0.59466633  0.98821828  0.75309055     0.74500
O1561       O  0.58966177  0.01715463  0.87458141    -0.39000
O1562       O  0.58936284  0.97486106  0.87678129    -0.38900
O1563       O  0.60082812  0.00777923  0.73957967    -0.39600
O1564       O  0.59461394  0.96600390  0.74266973    -0.39700
C1565       C  0.78794677  0.98313651  0.24870240    -0.12000
C1566       C  0.79323289  0.00707971  0.26077380     0.05100
C1567       C  0.77926251  0.02933080  0.25232039    -0.07200
C1568       C  0.76022140  0.02715675  0.23254485    -0.08000
C1569       C  0.75461590  0.00309755  0.22081928    -0.02500
C1570       C  0.76891094  0.98094302  0.22900302     0.04300
N1571       N  0.76438534  0.95597891  0.21766302     0.66800
H1572       H  0.79844672  0.96581408  0.25475853     0.15700
H1573       H  0.74971101  0.04445526  0.22644416     0.15400
N1574       N  0.78439751  0.05438267  0.26317857     0.74500
O1575       O  0.77887132  0.94821057  0.19926646    -0.39000
O1576       O  0.74957825  0.94002817  0.22914207    -0.38900
O1577       O  0.79842325  0.07023464  0.25063466    -0.39600
O1578       O  0.77050483  0.06251098  0.28186615    -0.39700
C1579       C  0.72405979  0.93764940  0.09497128    -0.12000
C1580       C  0.70602524  0.93549639  0.11557027     0.05100
C1581       C  0.69015670  0.91306476  0.11711313    -0.07200
C1582       C  0.69164206  0.89414789  0.09748922    -0.08000
C1583       C  0.70865960  0.89706036  0.07611546    -0.02500
C1584       C  0.72552597  0.91878813  0.07537956     0.04300
N1585       N  0.74400995  0.92235420  0.05472731     0.66800
H1586       H  0.73670793  0.95446750  0.09358320     0.15700
H1587       H  0.67860747  0.87759630  0.09852051     0.15400
N1588       N  0.67156961  0.90963633  0.13770394     0.74500
O1589       O  0.73785450  0.93647990  0.03546837    -0.39000
O1590       O  0.76788208  0.91677853  0.05866522    -0.38900
O1591       O  0.64736297  0.91261823  0.13300683    -0.39600
O1592       O  0.67866757  0.89833336  0.15846885    -0.39700
C1593       C  0.76261782  0.21439787  0.98952483    -0.12000
C1594       C  0.74810226  0.20995486  0.01242387     0.05100
C1595       C  0.75452353  0.22420699  0.03515160    -0.07200
C1596       C  0.77530130  0.24198812  0.03470935    -0.08000
C1597       C  0.78979869  0.24643872  0.01183764    -0.02500
C1598       C  0.78317900  0.23246378  0.98899546     0.04300
N1599       N  0.79727837  0.23603083  0.96515792     0.66800
H1600       H  0.75809503  0.20373113  0.97185078     0.15700
H1601       H  0.77980877  0.25267316  0.05237742     0.15400
N1602       N  0.74004838  0.22117702  0.05883572     0.74500
O1603       O  0.81608189  0.22095305  0.95969976    -0.39000
O1604       O  0.78777955  0.25052229  0.94757437    -0.38900
O1605       O  0.75053469  0.20965622  0.07801771    -0.39600
O1606       O  0.71940114  0.23438301  0.06228211    -0.39700
C1607       C  0.71653524  0.09295038  0.08230898    -0.12000
C1608       C  0.69196452  0.10069745  0.07232876     0.05100
C1609       C  0.66902471  0.08904859  0.08243692    -0.07200
C1610       C  0.67104625  0.07012561  0.10202848    -0.08000
C1611       C  0.69563824  0.06198015  0.11167064    -0.02500
C1612       C  0.71858173  0.07362454  0.10154686     0.04300
N1613       N  0.74416641  0.06586899  0.11021137     0.66800
H1614       H  0.73437907  0.10145181  0.07468314     0.15700
H1615       H  0.65317820  0.06139831  0.10933607     0.15400
N1616       N  0.64346501  0.09608762  0.07305401     0.74500
O1617       O  0.75722912  0.04989038  0.09675369    -0.39000
O1618       O  0.75561333  0.07880726  0.12781019    -0.38900
O1619       O  0.63160964  0.08123752  0.05735210    -0.39600
O1620       O  0.63092048  0.11412566  0.08416860    -0.39700
C1621       C  0.67680278  0.10156769  0.92969327    -0.12000
C1622       C  0.69479979  0.09983474  0.95054203     0.05100
C1623       C  0.71257458  0.07870028  0.95132034    -0.07200
C1624       C  0.71178066  0.05977077  0.93174045    -0.08000
C1625       C  0.69344978  0.06121276  0.91119366    -0.02500
C1626       C  0.67589549  0.08249608  0.91019024     0.04300
N1627       N  0.65611462  0.08441396  0.89035772     0.66800
H1628       H  0.66289636  0.11750898  0.92878944     0.15700
H1629       H  0.72535266  0.04356582  0.93295642     0.15400
N1630       N  0.73077874  0.07539366  0.97242053     0.74500
O1631       O  0.63408419  0.07376254  0.89386974    -0.39000
O1632       O  0.65879575  0.10056739  0.87200619    -0.38900
O1633       O  0.72468287  0.06101720  0.99143500    -0.39600
O1634       O  0.75446442  0.08194318  0.96938518    -0.39700
C1635       C  0.59868792  0.18186540  0.02541773    -0.12000
C1636       C  0.61884210  0.19309301  0.01056645     0.05100
C1637       C  0.61311106  0.21516104  0.99514382    -0.07200
C1638       C  0.58763074  0.22566021  0.99514142    -0.08000
C1639       C  0.56744926  0.21425432  0.00988269    -0.02500
C1640       C  0.57314711  0.19196453  0.02494107     0.04300
N1641       N  0.55336690  0.17945424  0.04015461     0.66800
H1642       H  0.60259356  0.16472109  0.03709626     0.15700
H1643       H  0.58361398  0.24276445  0.98344528     0.15400
N1644       N  0.63295794  0.22753837  0.97988734     0.74500
O1645       O  0.54036159  0.16104436  0.03027160    -0.39000
O1646       O  0.55273292  0.18305205  0.06453763    -0.38900
O1647       O  0.63186634  0.22626276  0.95527388    -0.39600
O1648       O  0.64800751  0.24388692  0.99054971    -0.39700
C1649       C  0.23651680  0.02320117  0.79074339    -0.12000
C1650       C  0.25105391  0.00006516  0.79319285     0.05100
C1651       C  0.24590820  0.97938106  0.77581906    -0.07200
C1652       C  0.22587681  0.98176423  0.75725213    -0.08000
C1653       C  0.21072548  0.00448707  0.75542601    -0.02500
C1654       C  0.21634427  0.02552782  0.77220067     0.04300
N1655       N  0.20071635  0.04866851  0.77194022     0.66800
H1656       H  0.24006074  0.03923424  0.80396671     0.15700
H1657       H  0.22217620  0.96563933  0.74417818     0.15400
N1658       N  0.26071586  0.95575593  0.77668071     0.74500
O1659       O  0.17928333  0.04912965  0.78429111    -0.39000
O1660       O  0.21069050  0.06974278  0.76426059    -0.38900
O1661       O  0.25013099  0.93542550  0.78548741    -0.39600
O1662       O  0.28163411  0.95392489  0.76360940    -0.39700
C1663       C  0.42194339  0.00894788  0.81436560    -0.12000
C1664       C  0.42672513  0.99014267  0.79509794     0.05100
C1665       C  0.40694694  0.97198229  0.78904371    -0.07200
C1666       C  0.38280716  0.97307824  0.80196234    -0.08000
C1667       C  0.37768636  0.99222687  0.82083097    -0.02500
C1668       C  0.39761845  0.01031917  0.82706172     0.04300
N1669       N  0.39332414  0.03070107  0.84553816     0.66800
H1670       H  0.43690522  0.02312599  0.81910309     0.15700
H1671       H  0.36795199  0.95886643  0.79702122     0.15400
N1672       N  0.41125712  0.95182459  0.77034627     0.74500
O1673       O  0.40002655  0.02744867  0.86909034    -0.39000
O1674       O  0.38786612  0.05326156  0.83746025    -0.38900
O1675       O  0.41740382  0.92935349  0.77818319    -0.39600
O1676       O  0.40348508  0.95494864  0.74710090    -0.39700
C1677       C  0.23184323  0.77829973  0.03170663    -0.12000
C1678       C  0.24384528  0.78418882  0.00771540     0.05100
C1679       C  0.23542611  0.77082693  0.98506321    -0.07200
C1680       C  0.21580435  0.75185182  0.98687017    -0.08000
C1681       C  0.20386357  0.74596240  0.01085592    -0.02500
C1682       C  0.21190202  0.75964660  0.03341920     0.04300
N1683       N  0.19942421  0.75560242  0.05806822     0.66800
H1684       H  0.23762600  0.78853057  0.04927981     0.15700
H1685       H  0.20987830  0.74170468  0.96929262     0.15400
N1686       N  0.24636232  0.77629978  0.95998357     0.74500
O1687       O  0.21121865  0.74296423  0.07573151    -0.39000
O1688       O  0.17909009  0.76851342  0.06372244    -0.38900
O1689       O  0.26272761  0.76067193  0.95015268    -0.39600
O1690       O  0.23555571  0.79318814  0.94559518    -0.39700
C1691       C  0.27730410  0.90117225  0.93390767    -0.12000
C1692       C  0.30128226  0.89100069  0.94308487     0.05100
C1693       C  0.32500229  0.90025041  0.93225293    -0.07200
C1694       C  0.32435080  0.91962644  0.91317464    -0.08000
C1695       C  0.30046039  0.93031547  0.90451795    -0.02500
C1696       C  0.27668796  0.92071697  0.91487107     0.04300
N1697       N  0.25182899  0.93140331  0.90731392     0.66800
H1698       H  0.25890524  0.89451019  0.94207303     0.15700
H1699       H  0.34281062  0.92665932  0.90545793     0.15400
N1700       N  0.35004357  0.89086498  0.94089560     0.74500
O1701       O  0.23849867  0.92039725  0.88968412    -0.39000
O1702       O  0.24114310  0.94847725  0.92146527    -0.38900
O1703       O  0.36073970  0.87213873  0.92905189    -0.39600
O1704       O  0.36353341  0.90439074  0.95651107    -0.39700
C1705       C  0.42352418  0.81255834  0.00343795    -0.12000
C1706       C  0.42621672  0.78542361  0.00508394     0.05100
C1707       C  0.40327323  0.77012994  0.00746657    -0.07200
C1708       C  0.37850859  0.78205680  0.00831340    -0.08000
C1709       C  0.37587514  0.80913130  0.00687062    -0.02500
C1710       C  0.39871395  0.82447009  0.00430390     0.04300
N1711       N  0.39707597  0.85204322  0.00133265     0.66800
H1712       H  0.44074941  0.82468348  0.00140328     0.15700
H1713       H  0.36121060  0.76999318  0.01015230     0.15400
N1714       N  0.40459819  0.74243360  0.00892755     0.74500
O1715       O  0.39882084  0.86641167  0.02123503    -0.39000
O1716       O  0.39961427  0.86191535  0.97890543    -0.38900
O1717       O  0.39950346  0.73117789  0.03022672    -0.39600
O1718       O  0.40562087  0.72932051  0.98812112    -0.39700
C1719       C  0.21486864  0.23025081  0.98314465    -0.12000
C1720       C  0.21297951  0.24605748  0.00542391     0.05100
C1721       C  0.22861544  0.24019638  0.02748467    -0.07200
C1722       C  0.24540276  0.21865100  0.02705251    -0.08000
C1723       C  0.24731780  0.20279914  0.00480007    -0.02500
C1724       C  0.23179959  0.20877021  0.98264076     0.04300
N1725       N  0.23233803  0.19288596  0.95975068     0.66800
H1726       H  0.20282537  0.23429988  0.96611338     0.15700
H1727       H  0.25743960  0.21468175  0.04410464     0.15400
N1728       N  0.22856875  0.25649788  0.05008498     0.74500
O1729       O  0.21486539  0.17580594  0.95656265    -0.39000
O1730       O  0.24632516  0.19960161  0.94059498    -0.38900
O1731       O  0.21690639  0.24914109  0.07050436    -0.39600
O1732       O  0.24406482  0.27557508  0.05120071    -0.39700
C1733       C  0.30154653  0.07691257  0.90184928    -0.12000
C1734       C  0.29213248  0.05205689  0.90797267     0.05100
C1735       C  0.28166206  0.04746178  0.93307430    -0.07200
C1736       C  0.28169727  0.06737960  0.95166585    -0.08000
C1737       C  0.29219714  0.09194172  0.94588001    -0.02500
C1738       C  0.30162189  0.09679027  0.92043059     0.04300
N1739       N  0.31177450  0.12159991  0.91313911     0.66800
H1740       H  0.30934848  0.08091224  0.88261016     0.15700
H1741       H  0.27440574  0.06319773  0.97106335     0.15400
N1742       N  0.27237929  0.02236239  0.94061019     0.74500
O1743       O  0.33617890  0.12428235  0.90970329    -0.39000
O1744       O  0.29618688  0.13900096  0.90510012    -0.38900
O1745       O  0.28812941  0.00630344  0.95088304    -0.39600
O1746       O  0.24796439  0.01821355  0.94172764    -0.39700
C1747       C  0.42182722  0.18292348  0.00185368    -0.12000
C1748       C  0.42210913  0.20939704  0.00861542     0.05100
C1749       C  0.39809858  0.22167712  0.01507249    -0.07200
C1750       C  0.37463285  0.20755275  0.01444372    -0.08000
C1751       C  0.37432914  0.18117204  0.00750032    -0.02500
C1752       C  0.39830340  0.16881145  0.00118416     0.04300
N1753       N  0.39927791  0.14188576  0.99443110     0.66800
H1754       H  0.43995749  0.17305517  0.99690037     0.15700
H1755       H  0.35650761  0.21740224  0.01947030     0.15400
N1756       N  0.39705480  0.24839317  0.02260151     0.74500
O1757       O  0.39693517  0.13519593  0.97081256    -0.39000
O1758       O  0.40728840  0.12553353  0.01106161    -0.38900
O1759       O  0.38664884  0.26480238  0.00738569    -0.39600
O1760       O  0.40123556  0.25448257  0.04614084    -0.39700
C1761       C  0.22168144  0.01887764  0.25047534    -0.12000
C1762       C  0.21096579  0.99557515  0.25986278     0.05100
C1763       C  0.22003932  0.97175932  0.24953615    -0.07200
C1764       C  0.23860734  0.97173798  0.22947412    -0.08000
C1765       C  0.24887421  0.99505160  0.21968833    -0.02500
C1766       C  0.24056950  0.01883963  0.23072956     0.04300
N1767       N  0.25097943  0.04317251  0.22220308     0.66800
H1768       H  0.21525028  0.03734880  0.25831826     0.15700
H1769       H  0.24505334  0.95328652  0.22160241     0.15400
N1770       N  0.21078232  0.94738151  0.25915275     0.74500
O1771       O  0.23901381  0.05596104  0.20475960    -0.39000
O1772       O  0.26875394  0.05405933  0.23550568    -0.38900
O1773       O  0.19694040  0.93310247  0.24456316    -0.39600
O1774       O  0.22083080  0.93793984  0.27967095    -0.39700
C1775       C  0.32261360  0.06777960  0.10382813    -0.12000
C1776       C  0.29912325  0.05456726  0.10905625     0.05100
C1777       C  0.27576118  0.06265906  0.09636646    -0.07200
C1778       C  0.27666058  0.08263457  0.07778897    -0.08000
C1779       C  0.30049616  0.09485034  0.07152533    -0.02500
C1780       C  0.32347021  0.08782255  0.08543340     0.04300
N1781       N  0.34789602  0.10077997  0.08120213     0.66800
H1782       H  0.34059628  0.06237622  0.11387358     0.15700
H1783       H  0.25875702  0.08787721  0.06752510     0.15400
N1784       N  0.25118988  0.05013202  0.10116029     0.74500
O1785       O  0.35446716  0.11921297  0.09608552    -0.39000
O1786       O  0.36492046  0.09051249  0.06656635    -0.38900
O1787       O  0.23376854  0.06170457  0.11428767    -0.39600
O1788       O  0.24514742  0.03006500  0.08833890    -0.39700
C1789       C  0.30008154  0.88573977  0.09367581    -0.12000
C1790       C  0.28881435  0.89179336  0.06928548     0.05100
C1791       C  0.27618193  0.91607925  0.06606875    -0.07200
C1792       C  0.27648471  0.93418092  0.08642363    -0.08000
C1793       C  0.28924550  0.92880844  0.11022841    -0.02500
C1794       C  0.30031054  0.90388436  0.11410642     0.04300
N1795       N  0.31229476  0.89674319  0.13838921     0.66800
H1796       H  0.30939717  0.86704981  0.09677213     0.15700
H1797       H  0.26758744  0.95302415  0.08304553     0.15400
N1798       N  0.26394342  0.92328967  0.04192488     0.74500
O1799       O  0.29815763  0.88781522  0.15649416    -0.39000
O1800       O  0.33693317  0.89396494  0.13965520    -0.38900
O1801       O  0.23926960  0.92182083  0.03969703    -0.39600
O1802       O  0.27683322  0.93608919  0.02530553    -0.39700
C1803       C  0.59446004  0.99815194  0.23676040    -0.12000
C1804       C  0.57224741  0.99812742  0.22034891     0.05100
C1805       C  0.57584372  0.99798113  0.19301951    -0.07200
C1806       C  0.60125786  0.99806715  0.18270039    -0.08000
C1807       C  0.62349501  0.99833004  0.19908109    -0.02500
C1808       C  0.61990451  0.99830694  0.22643253     0.04300
N1809       N  0.64176535  0.99786719  0.24406252     0.66800
H1810       H  0.59214243  0.99810332  0.25778628     0.15700
H1811       H  0.60353157  0.99797847  0.16167094     0.15400
N1812       N  0.55398188  0.99718748  0.17540074     0.74500
O1813       O  0.65014449  0.01892230  0.25352706    -0.39000
O1814       O  0.64880151  0.97661658  0.25426954    -0.38900
O1815       O  0.54587869  0.01788319  0.16482263    -0.39600
O1816       O  0.54561459  0.97557286  0.16730037    -0.39700
C1817       C  0.40557822  0.00774458  0.22881273    -0.12000
C1818       C  0.42625598  0.99356845  0.21767102     0.05100
C1819       C  0.42152078  0.97886663  0.19488882    -0.07200
C1820       C  0.39639330  0.97880241  0.18359280    -0.08000
C1821       C  0.37569409  0.99318693  0.19462853    -0.02500
C1822       C  0.38052389  0.00778039  0.21753547     0.04300
N1823       N  0.36042441  0.02314557  0.22944833     0.66800
H1824       H  0.40891807  0.01918052  0.24626348     0.15700
H1825       H  0.39307005  0.96726596  0.16621552     0.15400
N1826       N  0.44163585  0.96303430  0.18361772     0.74500
O1827       O  0.34711747  0.01369174  0.24790242    -0.39000
O1828       O  0.35974829  0.04731598  0.22533789    -0.38900
O1829       O  0.44212857  0.93897588  0.18837841    -0.39600
O1830       O  0.45564665  0.97203364  0.16545536    -0.39700
C1831       C  0.18721866  0.99768943  0.43407048    -0.12000
C1832       C  0.21482799  0.99830095  0.43485869     0.05100
C1833       C  0.22886293  0.99968383  0.41113276    -0.07200
C1834       C  0.21521418  0.00018006  0.38738135    -0.08000
C1835       C  0.18763520  0.99954181  0.38661644    -0.02500
C1836       C  0.17357447  0.99839543  0.41030543     0.04300
N1837       N  0.14549858  0.99739797  0.41067995     0.66800
H1838       H  0.17603930  0.99665866  0.45200617     0.15700
H1839       H  0.22635481  0.00123532  0.36941881     0.15400
N1840       N  0.25693445  0.00075827  0.41066008     0.74500
O1841       O  0.13417572  0.97565667  0.41195050    -0.39000
O1842       O  0.13256228  0.01783421  0.41530019    -0.38900
O1843       O  0.26999884  0.97996666  0.40876390    -0.39600
O1844       O  0.26815962  0.02223032  0.40670459    -0.39700
C1845       C  0.22879101  0.00639928  0.60108382    -0.12000
C1846       C  0.21397390  0.99956567  0.57891575     0.05100
C1847       C  0.18674633  0.99506438  0.58173381    -0.07200
C1848       C  0.17507188  0.99708086  0.60635740    -0.08000
C1849       C  0.18981972  0.00406732  0.62851197    -0.02500
C1850       C  0.21698631  0.00900809  0.62563499     0.04300
N1851       N  0.23288484  0.01710175  0.64722392     0.66800
H1852       H  0.24961907  0.01028679  0.59932948     0.15700
H1853       H  0.15421541  0.99330940  0.60802827     0.15400
N1854       N  0.17050566  0.98859861  0.55984682     0.74500
O1855       O  0.24889740  0.00126684  0.65743614    -0.39000
O1856       O  0.23502722  0.04102488  0.65215712    -0.38900
O1857       O  0.16493000  0.96512585  0.55546689    -0.39600
O1858       O  0.15764935  0.00629496  0.54840200    -0.39700
C1859       C  0.32708173  0.89741834  0.50229614    -0.12000
C1860       C  0.31108857  0.87520316  0.50280536     0.05100
C1861       C  0.28353599  0.87843181  0.50423106    -0.07200
C1862       C  0.27266389  0.90339931  0.50527690    -0.08000
C1863       C  0.28862050  0.92562250  0.50486212    -0.02500
C1864       C  0.31617477  0.92243244  0.50324033     0.04300
N1865       N  0.33346287  0.94425556  0.50260421     0.66800
H1866       H  0.34824103  0.89544351  0.50109565     0.15700
H1867       H  0.25149631  0.90530937  0.50644574     0.15400
N1868       N  0.26619026  0.85665584  0.50494952     0.74500
O1869       O  0.34464895  0.95152566  0.52339761    -0.39000
O1870       O  0.34174177  0.95246013  0.48090155    -0.38900
O1871       O  0.25830896  0.84824833  0.52671957    -0.39600
O1872       O  0.25456784  0.84965443  0.48429650    -0.39700
C1873       C  0.42635131  0.77534946  0.40806762    -0.12000
C1874       C  0.42990161  0.79779765  0.39293159     0.05100
C1875       C  0.41226655  0.81882026  0.39604275    -0.07200
C1876       C  0.39313871  0.81788563  0.41562995    -0.08000
C1877       C  0.39110440  0.79627064  0.43227624    -0.02500
C1878       C  0.40730960  0.77441841  0.42765628     0.04300
N1879       N  0.40614864  0.75180632  0.44382197     0.66800
H1880       H  0.43939434  0.75885264  0.40576496     0.15700
H1881       H  0.38051400  0.83461654  0.41844166     0.15400
N1882       N  0.41398099  0.84161009  0.38016221     0.74500
O1883       O  0.39535820  0.73150122  0.43515197    -0.39000
O1884       O  0.42065737  0.75037274  0.46384555    -0.38900
O1885       O  0.39858900  0.84428968  0.36093342    -0.39600
O1886       O  0.42686722  0.86093036  0.38827003    -0.39700
C1887       C  0.49956622  0.87687706  0.28771475    -0.12000
C1888       C  0.50119594  0.87557783  0.31509165     0.05100
C1889       C  0.50218444  0.89893544  0.32953812    -0.07200
C1890       C  0.50172920  0.92282668  0.31651741    -0.08000
C1891       C  0.50005980  0.92414133  0.28915550    -0.02500
C1892       C  0.49894223  0.90077988  0.27468554     0.04300
N1893       N  0.49684587  0.90082850  0.24680745     0.66800
H1894       H  0.49861426  0.85923925  0.27625123     0.15700
H1895       H  0.50249893  0.94045621  0.32800597     0.15400
N1896       N  0.50338275  0.89889670  0.35744843     0.74500
O1897       O  0.51742366  0.90210749  0.23316247    -0.39000
O1898       O  0.47538882  0.89452832  0.23610938    -0.38900
O1899       O  0.52484032  0.90394341  0.36880124    -0.39600
O1900       O  0.48231502  0.89900223  0.37040713    -0.39700
C1901       C  0.48176308  0.73636324  0.71696341    -0.12000
C1902       C  0.50583930  0.74570872  0.70751444     0.05100
C1903       C  0.52940864  0.73682329  0.71927369    -0.07200
C1904       C  0.52845547  0.71913954  0.74005258    -0.08000
C1905       C  0.50435908  0.71009314  0.74976852    -0.02500
C1906       C  0.48079123  0.71896834  0.73799436     0.04300
N1907       N  0.45563067  0.71104798  0.74741143     0.66800
H1908       H  0.46345017  0.74307838  0.70844408     0.15700
H1909       H  0.54677242  0.71258027  0.74868708     0.15400
N1910       N  0.55452942  0.74566180  0.71060858     0.74500
O1911       O  0.44544190  0.72294719  0.76642757    -0.39000
O1912       O  0.44160221  0.69607617  0.73373483    -0.38900
O1913       O  0.56690452  0.76224648  0.72397072    -0.39600
O1914       O  0.56623554  0.73362658  0.69257169    -0.39700
C1915       C  0.41913700  0.80963490  0.60270196    -0.12000
C1916       C  0.44262210  0.79604566  0.59776520     0.05100
C1917       C  0.44534574  0.78288434  0.57367319    -0.07200
C1918       C  0.42502905  0.78382226  0.55515903    -0.08000
C1919       C  0.40177561  0.79782189  0.55987567    -0.02500
C1920       C  0.39890418  0.81077475  0.58402308     0.04300
N1921       N  0.37615637  0.82616562  0.58950019     0.66800
H1922       H  0.41669308  0.82010490  0.62087290     0.15700
H1923       H  0.42769123  0.77372287  0.53680094     0.15400
N1924       N  0.46873387  0.76878559  0.56737054     0.74500
O1925       O  0.35872560  0.81747736  0.60462791    -0.39000
O1926       O  0.37580623  0.84985813  0.58313348    -0.38900
O1927       O  0.46935608  0.74448364  0.57058851    -0.39600
O1928       O  0.48631236  0.77955878  0.55384148    -0.39700
C1929       C  0.49293031  0.89535158  0.67738369    -0.12000
C1930       C  0.49993496  0.87280846  0.69128355     0.05100
C1931       C  0.50524246  0.87485856  0.71834809    -0.07200
C1932       C  0.50443043  0.89922577  0.73057423    -0.08000
C1933       C  0.49782640  0.92184767  0.71655129    -0.02500
C1934       C  0.49169656  0.91961809  0.68969780     0.04300
N1935       N  0.48418159  0.94174091  0.67451124     0.66800
H1936       H  0.48852505  0.89425861  0.65670110     0.15700
H1937       H  0.50873197  0.90033308  0.75127746     0.15400
N1938       N  0.51077917  0.85241096  0.73393217     0.74500
O1939       O  0.50149380  0.95435899  0.66233275    -0.39000
O1940       O  0.46018977  0.94565466  0.66943103    -0.38900
O1941       O  0.53350322  0.84921387  0.74342315    -0.39600
O1942       O  0.49200165  0.83879318  0.74230188    -0.39700
C1943       C  0.72469460  0.73847787  0.47711456    -0.12000
C1944       C  0.71328371  0.74723208  0.50049518     0.05100
C1945       C  0.72034932  0.73482209  0.52415633    -0.07200
C1946       C  0.73865524  0.71448363  0.52406794    -0.08000
C1947       C  0.75034981  0.70592101  0.50077667    -0.02500
C1948       C  0.74304976  0.71807617  0.47703829     0.04300
N1949       N  0.75399698  0.71006607  0.45265134     0.66800
H1950       H  0.71947263  0.74757593  0.45872800     0.15700
H1951       H  0.74376620  0.70541141  0.54249894     0.15400
N1952       N  0.70889308  0.74225796  0.54850070     0.74500
O1953       O  0.74140490  0.69441807  0.43837370    -0.39000
O1954       O  0.77299030  0.72256958  0.44310763    -0.38900
O1955       O  0.69008066  0.72918688  0.55762474    -0.39600
O1956       O  0.72086330  0.75806841  0.56311982    -0.39700
C1957       C  0.59782005  0.78291808  0.56957445    -0.12000
C1958       C  0.60872415  0.80686501  0.56230236     0.05100
C1959       C  0.60002875  0.82965073  0.57509719    -0.07200
C1960       C  0.58042879  0.82807348  0.59424235    -0.08000
C1961       C  0.56903004  0.80414727  0.60094481    -0.02500
C1962       C  0.57815875  0.78135852  0.58850791     0.04300
N1963       N  0.56720563  0.75646240  0.59418643     0.66800
H1964       H  0.60407985  0.76518962  0.56004230     0.15700
H1965       H  0.57374059  0.84579782  0.60348965     0.15400
N1966       N  0.61029140  0.85462741  0.56853499     0.74500
O1967       O  0.54870167  0.74785947  0.58017421    -0.39000
O1968       O  0.57932421  0.74121789  0.60937855    -0.38900
O1969       O  0.59723160  0.86942114  0.55365272    -0.39600
O1970       O  0.62896644  0.86389359  0.58186271    -0.39700
C1971       C  0.57972586  0.78870810  0.44496651    -0.12000
C1972       C  0.60417659  0.79908314  0.43782356     0.05100
C1973       C  0.60734255  0.80888857  0.41224869    -0.07200
C1974       C  0.58605639  0.80861553  0.39470741    -0.08000
C1975       C  0.56136140  0.79896833  0.40221613    -0.02500
C1976       C  0.55841320  0.78878022  0.42767899     0.04300
N1977       N  0.53382074  0.77884866  0.43665464     0.66800
H1978       H  0.57673129  0.78117358  0.46448612     0.15700
H1979       H  0.58880457  0.81640840  0.37525900     0.15400
N1980       N  0.63185710  0.81936229  0.40375668     0.74500
O1981       O  0.53102197  0.75466572  0.43953704    -0.39000
O1982       O  0.51737945  0.79415075  0.44688202    -0.38900
O1983       O  0.64810635  0.80481833  0.39221832    -0.39600
O1984       O  0.63483593  0.84367834  0.40287773    -0.39700
C1985       C  0.67751392  0.89981159  0.50683902    -0.12000
C1986       C  0.69383410  0.87898211  0.49973421     0.05100
C1987       C  0.72091040  0.88339271  0.49604616    -0.07200
C1988       C  0.73114913  0.90837599  0.49968045    -0.08000
C1989       C  0.71482267  0.92918682  0.50707501    -0.02500
C1990       C  0.68774188  0.92465794  0.51078913     0.04300
N1991       N  0.67052904  0.94468506  0.51985678     0.66800
H1992       H  0.65676731  0.89664478  0.51025723     0.15700
H1993       H  0.75190543  0.91153637  0.49636497     0.15400
N1994       N  0.73809200  0.86300415  0.48775609     0.74500
O1995       O  0.65356615  0.95422108  0.50452093    -0.39000
O1996       O  0.66873645  0.94892873  0.54407803    -0.38900
O1997       O  0.74175627  0.85933761  0.46365478    -0.39600
O1998       O  0.75319684  0.85223610  0.50414684    -0.39700
C1999       C  0.50629254  0.32149917  0.10969143    -0.12000
C2000       C  0.49974038  0.30671766  0.13182194     0.05100
C2001       C  0.49285560  0.28036985  0.12848424    -0.07200
C2002       C  0.49198613  0.26960587  0.10339049    -0.08000
C2003       C  0.49795477  0.28451207  0.08119668    -0.02500
C2004       C  0.50540286  0.31071444  0.08455669     0.04300
N2005       N  0.51238637  0.32663417  0.06278344     0.66800
H2006       H  0.51175544  0.34169967  0.11180236     0.15700
H2007       H  0.48656021  0.24938853  0.10133771     0.15400
N2008       N  0.48722308  0.26402615  0.15033870     0.74500
O2009       O  0.49499124  0.34034733  0.05172700    -0.39000
O2010       O  0.53633441  0.33082420  0.05802472    -0.38900
O2011       O  0.46390318  0.25673823  0.15429769    -0.39600
O2012       O  0.50587758  0.25283574  0.16221894    -0.39700
C2013       C  0.40629159  0.42546622  0.22470076    -0.12000
C2014       C  0.39624404  0.43375586  0.20049035     0.05100
C2015       C  0.40498618  0.42122665  0.17750576    -0.07200
C2016       C  0.42398451  0.40151692  0.17911303    -0.08000
C2017       C  0.43457905  0.39374199  0.20329059    -0.02500
C2018       C  0.42525473  0.40575866  0.22631193     0.04300
N2019       N  0.43541896  0.39894365  0.25148436     0.66800
H2020       H  0.39987011  0.43472895  0.24257163     0.15700
H2021       H  0.43074151  0.39253986  0.16121732     0.15400
N2022       N  0.39525539  0.42852549  0.15229252     0.74500
O2023       O  0.45550669  0.41045683  0.26017826    -0.39000
O2024       O  0.42148884  0.38569851  0.26686448    -0.38900
O2025       O  0.40926984  0.44236807  0.13752773    -0.39600
O2026       O  0.37545103  0.41703853  0.14294818    -0.39700
C2027       C  0.28523723  0.49085540  0.12298381    -0.12000
C2028       C  0.31192276  0.49737718  0.12533687     0.05100
C2029       C  0.32632010  0.50300487  0.10244717    -0.07200
C2030       C  0.31378800  0.50255431  0.07804736    -0.08000
C2031       C  0.28699994  0.49638635  0.07572535    -0.02500
C2032       C  0.27276941  0.49015422  0.09855758     0.04300
N2033       N  0.24572428  0.48277719  0.09741251     0.66800
H2034       H  0.27388719  0.48615789  0.14020106     0.15700
H2035       H  0.32517475  0.50714888  0.06082627     0.15400
N2036       N  0.35371377  0.50907133  0.10347597     0.74500
O2037       O  0.23981390  0.45898679  0.09690010    -0.39000
O2038       O  0.22814651  0.49939141  0.10237755    -0.38900
O2039       O  0.37046170  0.49153552  0.09886926    -0.39600
O2040       O  0.36087781  0.53251349  0.10414176    -0.39700
C2041       C  0.71022085  0.47354489  0.27367337    -0.12000
C2042       C  0.70584084  0.49673317  0.25985900     0.05100
C2043       C  0.72101706  0.51882388  0.26618119    -0.07200
C2044       C  0.73996836  0.51732006  0.28604144    -0.08000
C2045       C  0.74430150  0.49410303  0.29986262    -0.02500
C2046       C  0.72912891  0.47204638  0.29350495     0.04300
N2047       N  0.73219915  0.44805438  0.30726112     0.66800
H2048       H  0.69877190  0.45639683  0.26924256     0.15700
H2049       H  0.75146683  0.53442805  0.29050110     0.15400
N2050       N  0.71770668  0.54288239  0.25258012     0.74500
O2051       O  0.71830176  0.44370722  0.32716245    -0.39000
O2052       O  0.74442358  0.42952019  0.29662483    -0.38900
O2053       O  0.70364850  0.56052913  0.26248655    -0.39600
O2054       O  0.73285908  0.54835488  0.23390483    -0.39700
C2055       C  0.57093579  0.44249034  0.22122211    -0.12000
C2056       C  0.59676234  0.43619720  0.21387240     0.05100
C2057       C  0.60292903  0.41010576  0.20789150    -0.07200
C2058       C  0.58321558  0.39120480  0.20835790    -0.08000
C2059       C  0.55722558  0.39765189  0.21486988    -0.02500
C2060       C  0.55121426  0.42359997  0.22174162     0.04300
N2061       N  0.52496667  0.43151307  0.22785839     0.66800
H2062       H  0.56572222  0.46237111  0.22581593     0.15700
H2063       H  0.58825021  0.37142861  0.20316471     0.15400
N2064       N  0.62899201  0.40243104  0.20092227     0.74500
O2065       O  0.51726915  0.43078171  0.25126378    -0.39000
O2066       O  0.51164823  0.44395818  0.21113543    -0.38900
O2067       O  0.64438921  0.39388653  0.21833641    -0.39600
O2068       O  0.63482294  0.39958146  0.17714169    -0.39700
C2069       C  0.70816360  0.51116944  0.12685781    -0.12000
C2070       C  0.68827052  0.49284803  0.13128359     0.05100
C2071       C  0.68195644  0.47496466  0.11129557    -0.07200
C2072       C  0.69492797  0.47631228  0.08722614    -0.08000
C2073       C  0.71452562  0.49494114  0.08274239    -0.02500
C2074       C  0.72123842  0.51237747  0.10292212     0.04300
N2075       N  0.74035746  0.53229679  0.09908219     0.66800
H2076       H  0.71325727  0.52513429  0.14183991     0.15700
H2077       H  0.68988952  0.46246560  0.07211095     0.15400
N2078       N  0.66289270  0.45499402  0.11520528     0.74500
O2079       O  0.73353200  0.55335910  0.08835270    -0.39000
O2080       O  0.76210776  0.53100420  0.11097844    -0.38900
O2081       O  0.64018638  0.45743829  0.10545749    -0.39600
O2082       O  0.67015581  0.43318134  0.12395581    -0.39700
C2083       C  0.47778720  0.74597605  0.27526244    -0.12000
C2084       C  0.49729779  0.74478226  0.29476939     0.05100
C2085       C  0.51594745  0.72441254  0.29406354    -0.07200
C2086       C  0.51509735  0.70617611  0.27382907    -0.08000
C2087       C  0.49571889  0.70751901  0.25427643    -0.02500
C2088       C  0.47686157  0.72762370  0.25512522     0.04300
N2089       N  0.45751582  0.73054543  0.23499416     0.66800
H2090       H  0.46342053  0.76153921  0.27528023     0.15700
H2091       H  0.52951582  0.69065444  0.27363529     0.15400
N2092       N  0.53554384  0.72153328  0.31395566     0.74500
O2093       O  0.43431782  0.72289309  0.23895037    -0.39000
O2094       O  0.46216025  0.74527002  0.21583853    -0.38900
O2095       O  0.53090735  0.70726134  0.33345744    -0.39600
O2096       O  0.55887365  0.72839737  0.30935248    -0.39700
C2097       C  0.57268997  0.59404943  0.21993255    -0.12000
C2098       C  0.55993708  0.59975853  0.19617377     0.05100
C2099       C  0.56729270  0.58584535  0.17353246    -0.07200
C2100       C  0.58648793  0.56636999  0.17515598    -0.08000
C2101       C  0.59866086  0.56015636  0.19903130    -0.02500
C2102       C  0.59186737  0.57452131  0.22154726     0.04300
N2103       N  0.60383632  0.56924446  0.24632381     0.66800
H2104       H  0.56745732  0.60448990  0.23755735     0.15700
H2105       H  0.59138655  0.55561217  0.15762920     0.15400
N2106       N  0.55492645  0.59055056  0.14885103     0.74500
O2107       O  0.62610678  0.57860678  0.25175258    -0.39000
O2108       O  0.59235243  0.55484669  0.26264044    -0.38900
O2109       O  0.56596833  0.60518677  0.13245154    -0.39600
O2110       O  0.53617047  0.57623976  0.14157163    -0.39700
C2111       C  0.41237282  0.60327469  0.19159412    -0.12000
C2112       C  0.43415285  0.60105239  0.20842465     0.05100
C2113       C  0.43536726  0.57980580  0.22589846    -0.07200
C2114       C  0.41586923  0.56065970  0.22513266    -0.08000
C2115       C  0.39487385  0.56212441  0.20725790    -0.02500
C2116       C  0.39285546  0.58414715  0.19084862     0.04300
N2117       N  0.37187798  0.58691022  0.17238463     0.66800
H2118       H  0.41089724  0.61947318  0.17815683     0.15700
H2119       H  0.41761426  0.54418618  0.23819593     0.15400
N2120       N  0.45651226  0.57694360  0.24416721     0.74500
O2121       O  0.35243488  0.60113066  0.17794463    -0.39000
O2122       O  0.37541723  0.58003734  0.14898494    -0.38900
O2123       O  0.45323240  0.58384029  0.26759632    -0.39600
O2124       O  0.47598338  0.56285229  0.23836818    -0.39700
C2125       C  0.50296972  0.72958079  0.09950637    -0.12000
C2126       C  0.49956184  0.71492571  0.07656422     0.05100
C2127       C  0.49584767  0.68781870  0.07870716    -0.07200
C2128       C  0.49580665  0.67601990  0.10333567    -0.08000
C2129       C  0.49927560  0.69062959  0.12623697    -0.02500
C2130       C  0.50282343  0.71774726  0.12417909     0.04300
N2131       N  0.50543559  0.73372502  0.14687228     0.66800
H2132       H  0.50567988  0.75040157  0.09837669     0.15700
H2133       H  0.49297448  0.65521283  0.10448329     0.15400
N2134       N  0.49182225  0.67189683  0.05617596     0.74500
O2135       O  0.52806379  0.74013742  0.15470340    -0.39000
O2136       O  0.48557785  0.74570544  0.15545218    -0.38900
O2137       O  0.50967803  0.65639799  0.04904645    -0.39600
O2138       O  0.46901111  0.66974967  0.04662615    -0.39700
C2139       C  0.27933484  0.52165242  0.26572600    -0.12000
C2140       C  0.28818489  0.49755113  0.25627111     0.05100
C2141       C  0.27732119  0.47463159  0.26694792    -0.07200
C2142       C  0.25796289  0.47626871  0.28637249    -0.08000
C2143       C  0.24906645  0.50041086  0.29573057    -0.02500
C2144       C  0.26013078  0.52328329  0.28522219     0.04300
N2145       N  0.25245029  0.54841653  0.29430316     0.66800
H2146       H  0.28742595  0.53950604  0.25803191     0.15700
H2147       H  0.24991527  0.45845003  0.29419372     0.15400
N2148       N  0.28585007  0.44949295  0.25863980     0.74500
O2149       O  0.26582159  0.55938615  0.31193024    -0.39000
O2150       O  0.23592367  0.56151866  0.28134456    -0.38900
O2151       O  0.30345083  0.43776921  0.27154435    -0.39600
O2152       O  0.27207725  0.43696848  0.24243380    -0.39700
C2153       C  0.07029660  0.50116259  0.31877113    -0.12000
C2154       C  0.06857039  0.50548094  0.29172376     0.05100
C2155       C  0.09194724  0.50984813  0.27754758    -0.07200
C2156       C  0.11633277  0.50901246  0.29038904    -0.08000
C2157       C  0.11805526  0.50412797  0.31735301    -0.02500
C2158       C  0.09459811  0.50064406  0.33165467     0.04300
N2159       N  0.09489757  0.49722982  0.35938175     0.66800
H2160       H  0.05265156  0.49818967  0.33014317     0.15700
H2161       H  0.13401305  0.51209194  0.27910381     0.15400
N2162       N  0.09139669  0.51537738  0.25018077     0.74500
O2163       O  0.09394796  0.51694763  0.37400274    -0.39000
O2164       O  0.09033895  0.47508297  0.36890558    -0.38900
O2165       O  0.09257268  0.53865896  0.24253471    -0.39600
O2166       O  0.09507735  0.49723996  0.23400971    -0.39700
C2167       C  0.21810242  0.41897245  0.44310421    -0.12000
C2168       C  0.20086631  0.39787853  0.44041707     0.05100
C2169       C  0.18433377  0.39675947  0.41817620    -0.07200
C2170       C  0.18456964  0.41709640  0.39989324    -0.08000
C2171       C  0.20103698  0.43876663  0.40324787    -0.02500
C2172       C  0.21834542  0.43923628  0.42488895     0.04300
N2173       N  0.23615282  0.46026737  0.42897158     0.66800
H2174       H  0.23114130  0.42015307  0.45983035     0.15700
H2175       H  0.17120498  0.41622856  0.38340497     0.15400
N2176       N  0.16646731  0.37570894  0.41428954     0.74500
O2177       O  0.23020276  0.47805058  0.44487359    -0.39000
O2178       O  0.25960392  0.45814823  0.42126994    -0.38900
O2179       O  0.14255888  0.37847495  0.42023667    -0.39600
O2180       O  0.17345327  0.35643165  0.40073428    -0.39700
C2181       C  0.11904532  0.28634371  0.51042767    -0.12000
C2182       C  0.12033758  0.31281024  0.50395513     0.05100
C2183       C  0.09691951  0.32612470  0.49730510    -0.07200
C2184       C  0.07294744  0.31288839  0.49728855    -0.08000
C2185       C  0.07164337  0.28641701  0.50379477    -0.02500
C2186       C  0.09509444  0.27308576  0.51033949     0.04300
N2187       N  0.09511147  0.24610009  0.51691994     0.66800
H2188       H  0.13675334  0.27572818  0.51549536     0.15700
H2189       H  0.05523696  0.32352460  0.49227921     0.15400
N2190       N  0.09695439  0.35312111  0.49076106     0.74500
O2191       O  0.10118002  0.22958060  0.49973806    -0.39000
O2192       O  0.09475550  0.23939837  0.54064650    -0.38900
O2193       O  0.09632869  0.35988665  0.46705447    -0.39600
O2194       O  0.09237296  0.36975622  0.50828424    -0.39700
C2195       C  0.28138906  0.52658194  0.74503477    -0.12000
C2196       C  0.29234026  0.50274781  0.75303575     0.05100
C2197       C  0.28290182  0.47963675  0.74150350    -0.07200
C2198       C  0.26367272  0.48082932  0.72186379    -0.08000
C2199       C  0.25318952  0.50470040  0.71337145    -0.02500
C2200       C  0.26195958  0.52775674  0.72554550     0.04300
N2201       N  0.25136906  0.55255855  0.71855410     0.66800
H2202       H  0.28801393  0.54453909  0.75383165     0.15700
H2203       H  0.25700479  0.46284061  0.71316555     0.15400
N2204       N  0.29252241  0.45472282  0.74942545     0.74500
O2205       O  0.23446003  0.56308494  0.73314405    -0.39000
O2206       O  0.26288588  0.56610123  0.70154100    -0.38900
O2207       O  0.28069580  0.44237438  0.76713855    -0.39600
O2208       O  0.30924846  0.44310988  0.73547695    -0.39700
C2209       C  0.17415975  0.42820194  0.59744501    -0.12000
C2210       C  0.19854700  0.43837774  0.60528004     0.05100
C2211       C  0.22174244  0.42767397  0.59459555    -0.07200
C2212       C  0.22007070  0.40812733  0.57559347    -0.08000
C2213       C  0.19559600  0.39872774  0.56698553    -0.02500
C2214       C  0.17247870  0.40859526  0.57860967     0.04300
N2215       N  0.14701946  0.39948005  0.57113533     0.66800
H2216       H  0.15610101  0.43587687  0.60553382     0.15700
H2217       H  0.23807036  0.40062230  0.56722822     0.15400
N2218       N  0.24715612  0.43646683  0.60258781     0.74500
O2219       O  0.13628732  0.38167523  0.58424116    -0.39000
O2220       O  0.13339229  0.41248448  0.55510901    -0.38900
O2221       O  0.25998627  0.42357973  0.61934062    -0.39600
O2222       O  0.25869740  0.45368689  0.58937555    -0.39700
C2223       C  0.12385501  0.49117568  0.71620550    -0.12000
C2224       C  0.12464322  0.49977975  0.69016558     0.05100
C2225       C  0.10082430  0.50665556  0.67757041    -0.07200
C2226       C  0.07705912  0.50516503  0.69120968    -0.08000
C2227       C  0.07639710  0.49706175  0.71740919    -0.02500
C2228       C  0.10012164  0.48974326  0.72982968     0.04300
N2229       N  0.10052974  0.48041243  0.75613911     0.66800
H2230       H  0.14178610  0.48552550  0.72618999     0.15700
H2231       H  0.05908682  0.51083907  0.68130793     0.15400
N2232       N  0.10028809  0.51541040  0.65106075     0.74500
O2233       O  0.09897066  0.45631784  0.76041351    -0.39000
O2234       O  0.10752435  0.49541361  0.77436628    -0.38900
O2235       O  0.09433304  0.49965277  0.63311777    -0.39600
O2236       O  0.10009200  0.53947600  0.64633063    -0.39700
C2237       C  0.26424054  0.71138672  0.52191621    -0.12000
C2238       C  0.24687059  0.71019075  0.50053291     0.05100
C2239       C  0.25100044  0.72693753  0.47905641    -0.07200
C2240       C  0.27185819  0.74460036  0.47955617    -0.08000
C2241       C  0.28901865  0.74604511  0.50109292    -0.02500
C2242       C  0.28518771  0.72897649  0.52234512     0.04300
N2243       N  0.30244811  0.72898680  0.54444473     0.66800
H2244       H  0.26165371  0.69853760  0.53845725     0.15700
H2245       H  0.27440233  0.75745687  0.46301248     0.15400
N2246       N  0.23399323  0.72672219  0.45675096     0.74500
O2247       O  0.29631337  0.74182194  0.56453302    -0.39000
O2248       O  0.32073052  0.71240188  0.54581054    -0.38900
O2249       O  0.21582344  0.74339069  0.45496722    -0.39600
O2250       O  0.24050847  0.71387013  0.43678917    -0.39700
C2251       C  0.21248445  0.58209588  0.55863601    -0.12000
C2252       C  0.19803268  0.60479259  0.56391999     0.05100
C2253       C  0.18605438  0.60749704  0.58863708    -0.07200
C2254       C  0.18849880  0.58762872  0.60723748    -0.08000
C2255       C  0.20235820  0.56463665  0.60167498    -0.02500
C2256       C  0.21455616  0.56206047  0.57703972     0.04300
N2257       N  0.22802991  0.53876429  0.56977749     0.66800
H2258       H  0.22166755  0.57945117  0.53976636     0.15700
H2259       H  0.17875121  0.58994249  0.62586581     0.15400
N2260       N  0.17021344  0.62961271  0.59480530     0.74500
O2261       O  0.21589540  0.52141403  0.55720295    -0.39000
O2262       O  0.25276888  0.53770403  0.57150388    -0.38900
O2263       O  0.14556863  0.62828974  0.59213739    -0.39600
O2264       O  0.18006243  0.64806571  0.60773937    -0.39700
C2265       C  0.20863311  0.60224630  0.42595567    -0.12000
C2266       C  0.18499790  0.60660928  0.43945658     0.05100
C2267       C  0.16282867  0.59136887  0.43311275    -0.07200
C2268       C  0.16487026  0.57191267  0.41413524    -0.08000
C2269       C  0.18879108  0.56683901  0.40142652    -0.02500
C2270       C  0.21071304  0.58261392  0.40712584     0.04300
N2271       N  0.23525293  0.57900713  0.39409159     0.66800
H2272       H  0.22581971  0.61385278  0.43031180     0.15700
H2273       H  0.14780206  0.56000817  0.41014122     0.15400
N2274       N  0.13852699  0.59418784  0.44677968     0.74500
O2275       O  0.23950999  0.59085734  0.37293321    -0.39000
O2276       O  0.25418238  0.56842348  0.40609816    -0.38900
O2277       O  0.11919203  0.60481557  0.43547575    -0.39600
O2278       O  0.13478314  0.58125156  0.46739063    -0.39700
C2279       C  0.09330329  0.68275641  0.51700005    -0.12000
C2280       C  0.11576481  0.69705338  0.51033603     0.05100
C2281       C  0.11333963  0.72412942  0.50645185    -0.07200
C2282       C  0.08863495  0.73608011  0.50838985    -0.08000
C2283       C  0.06603331  0.72162358  0.51433549    -0.02500
C2284       C  0.06864484  0.69466512  0.51901439     0.04300
N2285       N  0.04655960  0.67892310  0.52572903     0.66800
H2286       H  0.09471807  0.66202042  0.52030335     0.15700
H2287       H  0.08718889  0.75681512  0.50510502     0.15400
N2288       N  0.13572876  0.73992615  0.50102232     0.74500
O2289       O  0.03255050  0.66931879  0.50777974    -0.39000
O2290       O  0.04467761  0.67008171  0.54865772    -0.38900
O2291       O  0.13953443  0.74795737  0.47804225    -0.39600
O2292       O  0.14827427  0.75006883  0.51972236    -0.39700
C2293       C  0.51988749  0.25089479  0.28640834    -0.12000
C2294       C  0.49594419  0.24535879  0.29892604     0.05100
C2295       C  0.47341843  0.25999589  0.29193531    -0.07200
C2296       C  0.47530068  0.27968975  0.27313900    -0.08000
C2297       C  0.49918237  0.28520345  0.26063963    -0.02500
C2298       C  0.52167055  0.27045294  0.26737650     0.04300
N2299       N  0.54625886  0.27436647  0.25454079     0.66800
H2300       H  0.53739276  0.23986724  0.29124954     0.15700
H2301       H  0.45777171  0.29064982  0.26821025     0.15400
N2302       N  0.44837531  0.25523444  0.30355789     0.74500
O2303       O  0.56294874  0.28958477  0.26445711    -0.39000
O2304       O  0.55332994  0.25879408  0.23684886    -0.38900
O2305       O  0.43800660  0.27253275  0.31766823    -0.39600
O2306       O  0.43427190  0.23704089  0.29482955    -0.39700
C2307       C  0.49909644  0.11556304  0.29138868    -0.12000
C2308       C  0.49639634  0.11616059  0.31866472     0.05100
C2309       C  0.49440537  0.09243996  0.33240431    -0.07200
C2310       C  0.49486053  0.06885649  0.31873779    -0.08000
C2311       C  0.49734522  0.06824264  0.29138500    -0.02500
C2312       C  0.49953099  0.09201203  0.27771624     0.04300
N2313       N  0.50235041  0.09273591  0.24995771     0.66800
H2314       H  0.50071123  0.13351479  0.28048700     0.15700
H2315       H  0.49339261  0.05092786  0.32969361     0.15400
N2316       N  0.49278207  0.09182934  0.36028474     0.74500
O2317       O  0.48228746  0.09618402  0.23576716    -0.39000
O2318       O  0.52493088  0.09541815  0.24019288    -0.38900
O2319       O  0.47073295  0.08886255  0.37109956    -0.39600
O2320       O  0.51353779  0.08956323  0.37371024    -0.39700
C2321       C  0.27706892  0.25630390  0.48573675    -0.12000
C2322       C  0.28780476  0.24936792  0.51009237     0.05100
C2323       C  0.27889890  0.26239056  0.53270406    -0.07200
C2324       C  0.25994827  0.28211294  0.53047784    -0.08000
C2325       C  0.24926296  0.28911939  0.50606906    -0.02500
C2326       C  0.25788542  0.27576010  0.48355579     0.04300
N2327       N  0.24692102  0.28109981  0.45836751     0.66800
H2328       H  0.28337776  0.24637469  0.46818407     0.15700
H2329       H  0.25360967  0.29200656  0.54803732     0.15400
N2330       N  0.28913608  0.25623183  0.55803396     0.74500
O2331       O  0.25858256  0.29657348  0.44322153    -0.39000
O2332       O  0.22927438  0.26639477  0.44934123    -0.38900
O2333       O  0.30515997  0.27151804  0.56889493    -0.39600
O2334       O  0.27838240  0.23863307  0.57140666    -0.39700
C2335       C  0.39195295  0.18448833  0.42691873    -0.12000
C2336       C  0.39747603  0.19822204  0.45002232     0.05100
C2337       C  0.42141386  0.21196601  0.45194068    -0.07200
C2338       C  0.43921880  0.21147985  0.43117072    -0.08000
C2339       C  0.43415879  0.19696112  0.40846217    -0.02500
C2340       C  0.41009341  0.18346238  0.40639607     0.04300
N2341       N  0.40427324  0.16744784  0.38433111     0.66800
H2342       H  0.37384513  0.17363048  0.42507643     0.15700
H2343       H  0.45757686  0.22187008  0.43331061     0.15400
N2344       N  0.42855017  0.22573926  0.47514350     0.74500
O2345       O  0.41022038  0.14363191  0.38501632    -0.39000
O2346       O  0.38857583  0.17560763  0.36699691    -0.38900
O2347       O  0.44274657  0.21463260  0.49210628    -0.39600
O2348       O  0.42575699  0.25009286  0.47591728    -0.39700
C2349       C  0.28293530  0.11769106  0.50769734    -0.12000
C2350       C  0.31045919  0.11923628  0.50935712     0.05100
C2351       C  0.32529381  0.09600938  0.51042033    -0.07200
C2352       C  0.31252035  0.07201394  0.50991518    -0.08000
C2353       C  0.28501457  0.07043698  0.50830794    -0.02500
C2354       C  0.27014660  0.09365596  0.50715094     0.04300
N2355       N  0.24207720  0.09332849  0.50566669     0.66800
H2356       H  0.27117242  0.13523615  0.50684325     0.15700
H2357       H  0.32432619  0.05449966  0.51082671     0.15400
N2358       N  0.35332634  0.09627830  0.51241342     0.74500
O2359       O  0.22880291  0.09489423  0.52639838    -0.39000
O2360       O  0.23086543  0.09688759  0.48390305    -0.38900
O2361       O  0.36406219  0.09379860  0.53455769    -0.39600
O2362       O  0.36696459  0.09327616  0.49207847    -0.39700
C2363       C  0.51965316  0.25700430  0.73316879    -0.12000
C2364       C  0.49521571  0.24975923  0.72267278     0.05100
C2365       C  0.47236542  0.26304672  0.73097030    -0.07200
C2366       C  0.47439461  0.28297079  0.74948636    -0.08000
C2367       C  0.49886509  0.29014347  0.76005741    -0.02500
C2368       C  0.52168084  0.27689733  0.75165213     0.04300
N2369       N  0.54714526  0.28329892  0.76157524     0.66800
H2370       H  0.53742475  0.24711864  0.72709836     0.15700
H2371       H  0.45664160  0.29289020  0.75555298     0.15400
N2372       N  0.44698017  0.25692515  0.72061337     0.74500
O2373       O  0.55665693  0.27031792  0.78030686    -0.39000
O2374       O  0.56204207  0.29768603  0.74826899    -0.38900
O2375       O  0.43111477  0.24390799  0.73423561    -0.39600
O2376       O  0.43862748  0.26886304  0.70067523    -0.39700
C2377       C  0.41237864  0.17498804  0.61595653    -0.12000
C2378       C  0.42941362  0.19627728  0.61823967     0.05100
C2379       C  0.42590153  0.21781382  0.60143415    -0.07200
C2380       C  0.40648597  0.21713014  0.58208031    -0.08000
C2381       C  0.39033050  0.19530805  0.57893800    -0.02500
C2382       C  0.39286680  0.17437432  0.59662475     0.04300
N2383       N  0.37595240  0.15229426  0.59522256     0.66800
H2384       H  0.41446928  0.15848709  0.62894178     0.15700
H2385       H  0.40485040  0.23340961  0.56875243     0.15400
N2386       N  0.44279768  0.23992313  0.60260444     0.74500
O2387       O  0.38419893  0.13153521  0.58497033    -0.39000
O2388       O  0.35518877  0.15193081  0.60864376    -0.38900
O2389       O  0.46232625  0.24113206  0.58752587    -0.39600
O2390       O  0.43497204  0.26026511  0.61395366    -0.39700
C2391       C  0.50674883  0.09717330  0.68790826    -0.12000
C2392       C  0.49484516  0.11758953  0.70181265     0.05100
C2393       C  0.48402068  0.11218735  0.72665089    -0.07200
C2394       C  0.48521823  0.08687649  0.73684537    -0.08000
C2395       C  0.49684781  0.06642824  0.72274462    -0.02500
C2396       C  0.50787529  0.07189874  0.69807907     0.04300
N2397       N  0.52081097  0.05218211  0.68323537     0.66800
H2398       H  0.51541824  0.10079295  0.66897085     0.15700
H2399       H  0.47662578  0.08318903  0.75580836     0.15400
N2400       N  0.47133563  0.13194596  0.74168603     0.74500
O2401       O  0.50890853  0.04155854  0.66439991    -0.39000
O2402       O  0.54527416  0.04884309  0.68587530    -0.38900
O2403       O  0.44700570  0.13588793  0.73866275    -0.39600
O2404       O  0.48286564  0.14122577  0.76145625    -0.39700
C2405       C  0.72191329  0.25192319  0.49470250    -0.12000
C2406       C  0.70398549  0.25090826  0.51548826     0.05100
C2407       C  0.70693740  0.26849510  0.53646330    -0.07200
C2408       C  0.72749936  0.28655617  0.53627059    -0.08000
C2409       C  0.74525681  0.28774837  0.51534703    -0.02500
C2410       C  0.74248213  0.26994816  0.49451648     0.04300
N2411       N  0.76083756  0.26923680  0.47343361     0.66800
H2412       H  0.72029989  0.23831850  0.47865615     0.15700
H2413       H  0.72911676  0.30017201  0.55230400     0.15400
N2414       N  0.68865427  0.26907196  0.55760163     0.74500
O2415       O  0.78215630  0.25689620  0.47618076    -0.39000
O2416       O  0.75359144  0.27621849  0.45087393    -0.38900
O2417       O  0.69589002  0.26176877  0.58006077    -0.39600
O2418       O  0.66725576  0.28129888  0.55497317    -0.39700
C2419       C  0.57130033  0.21412213  0.57153781    -0.12000
C2420       C  0.59550205  0.20175712  0.57616017     0.05100
C2421       C  0.59993362  0.19002115  0.60080793    -0.07200
C2422       C  0.57984023  0.18972893  0.61955823    -0.08000
C2423       C  0.55519058  0.20104692  0.61437997    -0.02500
C2424       C  0.55130814  0.21391590  0.59023638     0.04300
N2425       N  0.52705520  0.22661182  0.58405485     0.66800
H2426       H  0.56748461  0.22351709  0.55295877     0.15700
H2427       H  0.58340751  0.18005199  0.63803471     0.15400
N2428       N  0.62452852  0.17802483  0.60710718     0.74500
O2429       O  0.52514037  0.25086570  0.58714896    -0.39000
O2430       O  0.51032284  0.21498205  0.57007999    -0.38900
O2431       O  0.64249007  0.19142176  0.61749294    -0.39600
O2432       O  0.62633574  0.15356799  0.60729724    -0.39700
C2433       C  0.58594931  0.16781194  0.44110886    -0.12000
C2434       C  0.59681885  0.19188260  0.44822857     0.05100
C2435       C  0.58983582  0.21414063  0.43353271    -0.07200
C2436       C  0.57128410  0.21218704  0.41328271    -0.08000
C2437       C  0.55955298  0.18830935  0.40696993    -0.02500
C2438       C  0.56771104  0.16579698  0.42062525     0.04300
N2439       N  0.55743213  0.14074416  0.41431023     0.66800
H2440       H  0.59137547  0.15037098  0.45167688     0.15700
H2441       H  0.56565401  0.22963221  0.40282473     0.15400
N2442       N  0.60119759  0.23894215  0.43887569     0.74500
O2443       O  0.56836235  0.12731427  0.39678882    -0.39000
O2444       O  0.54075033  0.13030579  0.42915608    -0.38900
O2445       O  0.61795047  0.24817016  0.42331017    -0.39600
O2446       O  0.59064799  0.25363705  0.45558101    -0.39700
C2447       C  0.67457481  0.10257735  0.52810283    -0.12000
C2448       C  0.68563395  0.12307730  0.51371919     0.05100
C2449       C  0.70911292  0.11854026  0.49974760    -0.07200
C2450       C  0.72084245  0.09393180  0.50032084    -0.08000
C2451       C  0.70960026  0.07341298  0.51444542    -0.02500
C2452       C  0.68628204  0.07794023  0.52857794     0.04300
N2453       N  0.67466108  0.05806142  0.54421274     0.66800
H2454       H  0.65671929  0.10562192  0.53914479     0.15700
H2455       H  0.73873772  0.09083002  0.48934787     0.15400
N2456       N  0.72124443  0.13849050  0.48460469     0.74500
O2457       O  0.67903031  0.05761769  0.56850783    -0.39000
O2458       O  0.65623976  0.04453227  0.53485795    -0.38900
O2459       O  0.73992010  0.15137239  0.49438681    -0.39600
O2460       O  0.71742170  0.13918409  0.46022743    -0.39700
loop_ 
_geom_bond_atom_site_label_1 
_geom_bond_atom_site_label_2 
_geom_bond_distance 
_geom_bond_site_symmetry_2 
_ccdc_geom_bond_type 
In1           O3   2.255       .  S
In1           O4   2.237       .  S
In1          O12   2.257       .  S
In1           O6   2.242       .  S
In1           O8   2.246       .  S
In1           O9   2.241       .  S
In1          O10   2.263       .  S
In1          O13   2.256       .  S
C2            O8   1.259       .  A
C2           O10   1.260       .  A
C2         C2434   1.487       .  S
O3           C11   1.260       .  A
O4           C11   1.259       .  A
C5           O12   1.260       .  A
C5            O6   1.259       .  A
C5         C2406   1.482       .  S
C7            O9   1.263       .  A
C7           O13   1.261       .  A
C7         C2420   1.487       .  S
C11        C2448   1.482       .  S
In14         O16   2.268       .  S
In14         O17   2.247       .  S
In14         O25   2.250       .  S
In14         O19   2.238       .  S
In14         O21   2.245       .  S
In14         O22   2.240       .  S
In14         O23   2.267       .  S
In14         O26   2.233       .  S
C15          O21   1.257       .  A
C15          O23   1.262       .  A
C15        C2423   1.486       .  S
O16          C24   1.261       .  A
O17          C24   1.261       .  A
C18          O25   1.259       .  A
C18          O19   1.260       .  A
C18        C2364   1.481       .  S
C20          O22   1.262       .  A
C20          O26   1.259       .  A
C20        C2378   1.476       .  S
C24        C2392   1.490       .  S
In27         O29   2.241       .  S
In27         O30   2.240       .  S
In27         O38   2.241       .  S
In27         O32   2.253       .  S
In27         O34   2.242       .  S
In27         O35   2.247       .  S
In27         O36   2.230       .  S
In27         O39   2.253       .  S
C28          O34   1.259       .  A
C28          O36   1.261       .  A
C28        C2381   1.476       .  S
O29          C37   1.262       .  A
O30          C37   1.260       .  A
C31          O38   1.260       .  A
C31          O32   1.260       .  A
C31        C2322   1.483       .  S
C33          O35   1.259       .  A
C33          O39   1.258       .  A
C33        C2336   1.483       .  S
C37        C2350   1.480       .  S
In40         O42   2.248       .  S
In40         O43   2.250       .  S
In40         O51   2.245       .  S
In40         O45   2.261       .  S
In40         O47   2.261       .  S
In40         O48   2.251       .  S
In40         O49   2.233       .  S
In40         O52   2.251       .  S
C41          O47   1.261       .  A
C41          O49   1.259       .  A
C41        C2339   1.484       .  S
O42          C50   1.260       .  A
O43          C50   1.259       .  A
C44          O51   1.261       .  A
C44          O45   1.262       .  A
C44        C2294   1.489       .  S
C46          O48   1.259       .  A
C46          O52   1.260       .  A
C46        C2437   1.485       .  S
C50        C2308   1.482       .  S
In53         O55   2.258       .  S
In53         O56   2.235       .  S
In53         O64   2.239       .  S
In53         O58   2.244       .  S
In53         O60   2.260       .  S
In53         O61   2.238       .  S
In53         O62   2.236       .  S
In53         O65   2.259       .  S
C54          O60   1.261       .  A
C54          O62   1.259       .  A
C54        C2252   1.484       .  S
O55          C63   1.260       .  A
O56          C63   1.260       .  A
C57          O64   1.262       .  A
C57          O58   1.261       .  A
C57        C2238   1.482       .  S
C59          O61   1.258       .  A
C59          O65   1.260       .  A
C59        C2266   1.482       .  S
C63        C2280   1.482       .  S
In66         O68   2.251       .  S
In66         O69   2.239       .  S
In66         O77   2.239       .  S
In66         O71   2.264       .  S
In66         O73   2.260       .  S
In66         O74   2.247       .  S
In66         O75   2.235       .  S
In66         O78   2.249       .  S
C67          O73   1.261       .  A
C67          O75   1.259       .  A
C67        C2210   1.483       .  S
O68          C76   1.260       .  A
O69          C76   1.261       .  A
C70          O77   1.260       .  A
C70          O71   1.261       .  A
C70        C2199   1.486       .  S
C72          O74   1.260       .  A
C72          O78   1.259       .  A
C72        C2255   1.484       .  S
C76        C2224   1.482       .  S
In79         O81   2.240       .  S
In79         O82   2.236       .  S
In79         O90   2.258       .  S
In79         O84   2.243       .  S
In79         O86   2.235       .  S
In79         O87   2.249       .  S
In79         O88   2.260       .  S
In79         O91   2.249       .  S
C80          O86   1.259       .  A
C80          O88   1.260       .  A
C80        C2168   1.483       .  S
O81          C89   1.260       .  A
O82          C89   1.261       .  A
C83          O90   1.261       .  A
C83          O84   1.260       .  A
C83        C2325   1.485       .  S
C85          O87   1.259       .  A
C85          O91   1.260       .  A
C85        C2213   1.484       .  S
C89        C2182   1.478       .  S
In92         O94   2.243       .  S
In92         O95   2.254       .  S
In92        O103   2.253       .  S
In92         O97   2.253       .  S
In92         O99   2.265       .  S
In92        O100   2.251       .  S
In92        O101   2.233       .  S
In92        O104   2.252       .  S
C93          O99   1.261       .  A
C93         O101   1.257       .  A
C93        C2269   1.482       .  S
O94         C102   1.259       .  A
O95         C102   1.262       .  A
C96         O103   1.261       .  A
C96          O97   1.261       .  A
C96        C2143   1.488       .  S
C98         O100   1.260       .  A
C98         O104   1.260       .  A
C98        C2171   1.485       .  S
C102       C2157   1.483       .  S
In105       O107   2.233       .  S
In105       O108   2.259       .  S
In105       O116   2.248       .  S
In105       O110   2.228       .  S
In105       O112   2.248       .  S
In105       O113   2.251       .  S
In105       O114   2.253       .  S
In105       O117   2.246       .  S
C106        O112   1.259       .  A
C106        O114   1.257       .  A
C106       C2112   1.483       .  S
O107        C115   1.260       .  A
O108        C115   1.260       .  A
C109        O116   1.262       .  A
C109        O110   1.261       .  A
C109       C2087   1.475       .  S
C111        O113   1.259       .  A
C111        O117   1.260       .  A
C111       C2098   1.484       .  S
C115       C2129   1.480       .  S
In118       O120   2.234       .  S
In118       O121   2.252       .  S
In118       O129   2.249       .  S
In118       O123   2.236       .  S
In118       O125   2.238       .  S
In118       O126   2.243       .  S
In118       O127   2.242       .  S
In118       O130   2.238       .  S
C119        O125   1.260       .  A
C119        O127   1.262       .  A
C119       C2101   1.482       .  S
O120        C128   1.259       .  A
O121        C128   1.259       .  A
C122        O129   1.258       .  A
C122        O123   1.259       .  A
C122       C2042   1.479       .  S
C124        O126   1.261       .  A
C124        O130   1.261       .  A
C124       C2056   1.481       .  S
C128       C2070   1.479       .  S
In131       O133   2.246       .  S
In131       O134   2.238       .  S
In131       O142   2.246       .  S
In131       O136   2.266       .  S
In131       O138   2.252       .  S
In131       O139   2.257       .  S
In131       O140   2.248       .  S
In131       O143   2.246       .  S
C132        O138   1.258       .  A
C132        O140   1.261       .  A
C132       C2014   1.483       .  S
O133        C141   1.263       .  A
O134        C141   1.260       .  A
C135        O142   1.261       .  A
C135        O136   1.261       .  A
C135       C2140   1.489       .  S
C137        O139   1.259       .  A
C137        O143   1.260       .  A
C137       C2115   1.484       .  S
C141       C2028   1.482       .  S
In144       O146   2.251       .  S
In144       O147   2.246       .  S
In144       O155   2.233       .  S
In144       O149   2.266       .  S
In144       O151   2.242       .  S
In144       O152   2.247       .  S
In144       O153   2.247       .  S
In144       O156   2.245       .  S
C145        O151   1.257       .  A
C145        O153   1.262       .  A
C145       C2059   1.480       .  S
O146        C154   1.260       .  A
O147        C154   1.260       .  A
C148        O155   1.260       .  A
C148        O149   1.262       .  A
C148       C2297   1.485       .  S
C150        O152   1.261       .  A
C150        O156   1.260       .  A
C150       C2017   1.484       .  S
C154       C2000   1.482       .  S
In157       O159   2.256       .  S
In157       O160   2.223       .  S
In157       O168   2.242       .  S
In157       O162   2.250       .  S
In157       O164   2.264       .  S
In157       O165   2.272       .  S
In157       O166   2.235       .  S
In157       O169   2.224       .  S
C158        O164   1.259       .  A
C158        O166   1.260       .  A
C158       C1958   1.483       .  S
O159        C167   1.262       .  A
O160        C167   1.259       .  A
C161        O168   1.260       .  A
C161        O162   1.262       .  A
C161       C1944   1.485       .  S
C163        O165   1.261       .  A
C163        O169   1.257       .  A
C163       C1972   1.482       .  S
C167       C1986   1.474       .  S
In170       O172   2.256       .  S
In170       O173   2.244       .  S
In170       O181   2.243       .  S
In170       O175   2.247       .  S
In170       O177   2.249       .  S
In170       O178   2.253       .  S
In170       O179   2.256       .  S
In170       O182   2.239       .  S
C171        O177   1.258       .  A
C171        O179   1.261       .  A
C171       C1916   1.486       .  S
O172        C180   1.260       .  A
O173        C180   1.261       .  A
C174        O181   1.259       .  A
C174        O175   1.262       .  A
C174       C1902   1.483       .  S
C176        O178   1.261       .  A
C176        O182   1.259       .  A
C176       C1961   1.483       .  S
C180       C1930   1.486       .  S
In183       O185   2.239       .  S
In183       O186   2.240       .  S
In183       O194   2.234       .  S
In183       O188   2.251       .  S
In183       O190   2.237       .  S
In183       O191   2.234       .  S
In183       O192   2.254       .  S
In183       O195   2.245       .  S
C184        O190   1.259       .  A
C184        O192   1.261       .  A
C184       C1975   1.483       .  S
O185        C193   1.261       .  A
O186        C193   1.260       .  A
C187        O194   1.259       .  A
C187        O188   1.260       .  A
C187       C2084   1.480       .  S
C189        O191   1.261       .  A
C189        O195   1.259       .  A
C189       C1874   1.479       .  S
C193       C1888   1.480       .  S
In196       O198   2.249       .  S
In196       O199   2.244       .  S
In196       O207   2.253       .  S
In196       O201   2.233       .  S
In196       O203   2.243       .  S
In196       O204   2.237       .  S
In196       O205   2.244       .  S
In196       O208   2.262       .  S
C197        O203   1.259       .  A
C197        O205   1.261       .  A
C197       C1877   1.480       .  S
O198        C206   1.260       .  A
O199        C206   1.261       .  A
C200        O207   1.261       .  A
C200        O201   1.260       .  A
C200       C2241   1.482       .  S
C202        O204   1.258       .  A
C202        O208   1.261       .  A
C202       C1919   1.484       .  S
C206       C1860   1.483       .  S
In209       O211   2.234       .  S
In209       O212   2.257       .  S
In209       O220   2.242       .  S
In209       O214   2.231       .  S
In209       O216   2.242       .  S
In209       O217   2.232   1_565  S
In209       O218   2.242       .  S
In209       O221   2.243   1_565  S
C210        O216   1.260       .  A
C210        O218   1.261       .  A
C210       C1846   1.482       .  S
O211        C219   1.260       .  A
O212        C219   1.260       .  A
C213        O220   1.260       .  A
C213        O214   1.260       .  A
C213       C1832   1.478       .  S
C215        O217   1.262       .  A
C215        O221   1.260       .  A
C215       C2353   1.480       .  S
C219       C1863   1.483       .  S
In222       O224   2.239       .  S
In222       O225   2.238       .  S
In222       O233   2.231       .  S
In222       O227   2.238   1_565  S
In222       O229   2.245       .  S
In222       O230   2.243   1_565  S
In222       O231   2.229       .  S
In222       O234   2.248   1_565  S
C223        O229   1.260       .  A
C223        O231   1.260       .  A
C223       C1818   1.474       .  S
O224        C232   1.259       .  A
O225        C232   1.262       .  A
C226        O233   1.260       .  A
C226        O227   1.261   1_565  A
C226       C1804   1.478       .  S
C228        O230   1.262       .  A
C228        O234   1.262       .  A
C228       C2311   1.486       .  S
C232       C1891   1.480       .  S
In235       O237   2.236   1_565  S
In235       O238   2.246       .  S
In235       O246   2.237       .  S
In235       O240   2.231   1_565  S
In235       O242   2.246   1_565  S
In235       O243   2.265       .  S
In235       O244   2.234   1_565  S
In235       O247   2.231       .  S
C236        O242   1.259       .  A
C236        O244   1.261       .  A
C236       C1776   1.478       .  S
O237        C245   1.258   1_545  A
O238        C245   1.261       .  A
C239        O246   1.261       .  A
C239        O240   1.258   1_565  A
C239       C1765   1.476       .  S
C241        O243   1.261       .  A
C241        O247   1.259       .  A
C241       C1793   1.484       .  S
C245       C1821   1.480       .  S
In248       O250   2.236       .  S
In248       O251   2.253   1_554  S
In248       O259   2.231       .  S
In248       O253   2.254   1_554  S
In248       O255   2.235   1_554  S
In248       O256   2.244       .  S
In248       O257   2.246   1_554  S
In248       O260   2.240       .  S
C249        O255   1.259       .  A
C249        O257   1.261       .  A
C249       C1737   1.479       .  S
O250        C258   1.260       .  A
O251        C258   1.261   1_556  A
C252        O259   1.259       .  A
C252        O253   1.260   1_554  A
C252       C1723   1.479       .  S
C254        O256   1.261       .  A
C254        O260   1.260       .  A
C254       C1779   1.480       .  S
C258       C1751   1.482       .  S
In261       O263   2.248       .  S
In261       O264   2.250       .  S
In261       O272   2.259   1_554  S
In261       O266   2.243       .  S
In261       O268   2.248       .  S
In261       O269   2.232   1_554  S
In261       O270   2.244       .  S
In261       O273   2.249   1_554  S
C262        O268   1.261       .  A
C262        O270   1.259       .  A
C262       C1790   1.483       .  S
O263        C271   1.259       .  A
O264        C271   1.262       .  A
C265        O272   1.262   1_554  A
C265        O266   1.261       .  A
C265       C1678   1.487       .  S
C267        O269   1.257       .  A
C267        O273   1.261       .  A
C267       C1692   1.479       .  S
C271       C1709   1.480       .  S
In274       O276   2.250   1_565  S
In274       O277   2.234       .  S
In274       O285   2.242       .  S
In274       O279   2.242   1_565  S
In274       O281   2.246       .  S
In274       O282   2.225   1_565  S
In274       O283   2.224       .  S
In274       O286   2.242   1_565  S
C275        O281   1.261       .  A
C275        O283   1.261       .  A
C275       C1695   1.477       .  S
O276        C284   1.259   1_545  A
O277        C284   1.260       .  A
C278        O285   1.257       .  A
C278        O279   1.258   1_565  A
C278       C1650   1.477   1_565  S
C280        O282   1.262       .  A
C280        O286   1.260       .  A
C280       C1734   1.476       .  S
C284       C1667   1.480       .  S
In287       O289   2.264   1_554  S
In287       O290   2.231       .  S
In287       O298   2.253       .  S
In287       O292   2.245   1_554  S
In287       O294   2.250       .  S
In287       O295   2.246   1_554  S
In287       O296   2.244       .  S
In287       O299   2.252   1_554  S
C288        O294   1.263       .  A
C288        O296   1.260       .  A
C288       C1608   1.484       .  S
O289        C297   1.261   1_556  A
O290        C297   1.259       .  A
C291        O298   1.261       .  A
C291        O292   1.260   1_554  A
C291       C1594   1.485       .  S
C293        O295   1.259       .  A
C293        O299   1.259       .  A
C293       C1622   1.482       .  S
C297       C1636   1.479       .  S
In300       O302   2.255   1_565  S
In300       O303   2.231       .  S
In300       O311   2.245   1_565  S
In300       O305   2.246       .  S
In300       O307   2.232       .  S
In300       O308   2.247   1_565  S
In300       O309   2.262       .  S
In300       O312   2.262   1_565  S
C301        O307   1.259       .  A
C301        O309   1.260       .  A
C301       C1580   1.482       .  S
O302        C310   1.262   1_545  A
O303        C310   1.260       .  A
C304        O311   1.262       .  A
C304        O305   1.261   1_545  A
C304       C1569   1.485       .  S
C306        O308   1.259       .  A
C306        O312   1.260       .  A
C306       C1611   1.485       .  S
C310       C1807   1.480       .  S
In313       O315   2.242   1_565  S
In313       O316   2.236       .  S
In313       O324   2.250       .  S
In313       O318   2.254   1_565  S
In313       O320   2.233   1_565  S
In313       O321   2.240       .  S
In313       O322   2.256   1_565  S
In313       O325   2.239       .  S
C314        O320   1.258       .  A
C314        O322   1.260       .  A
C314       C1625   1.480       .  S
O315        C323   1.260   1_545  A
O316        C323   1.262       .  A
C317        O324   1.260   1_545  A
C317        O318   1.261       .  A
C317       C1524   1.488       .  S
C319        O321   1.258       .  A
C319        O325   1.260       .  A
C319       C1538   1.477       .  S
C323       C1555   1.477       .  S
In326       O328   2.259       .  S
In326       O329   2.234       .  S
In326       O337   2.247       .  S
In326       O331   2.249   1_554  S
In326       O333   2.245   1_554  S
In326       O334   2.245       .  S
In326       O335   2.228   1_554  S
In326       O338   2.250       .  S
C327        O333   1.260       .  A
C327        O335   1.259       .  A
C327       C1541   1.478       .  S
O328        C336   1.260       .  A
O329        C336   1.261       .  A
C330        O337   1.262       .  A
C330        O331   1.259   1_554  A
C330       C1499   1.483       .  S
C332        O334   1.260       .  A
C332        O338   1.258       .  A
C332       C1583   1.481       .  S
C336       C1513   1.483       .  S
In339       O341   2.256       .  S
In339       O342   2.253       .  S
In339       O350   2.247       .  S
In339       O344   2.242       .  S
In339       O346   2.249       .  S
In339       O347   2.240       .  S
In339       O348   2.250       .  S
In339       O351   2.251       .  S
C340        O346   1.259       .  A
C340        O348   1.262       .  A
C340       C1468   1.485       .  S
O341        C349   1.261       .  A
O342        C349   1.260       .  A
C343        O350   1.260       .  A
C343        O344   1.260       .  A
C343       C2367   1.482       .  S
C345        O347   1.261       .  A
C345        O351   1.260       .  A
C345       C1454   1.483       .  S
C349       C1482   1.487       .  S
In352       O354   2.261       .  S
In352       O355   2.226       .  S
In352       O363   2.255       .  S
In352       O357   2.245       .  S
In352       O359   2.264       .  S
In352       O360   2.249       .  S
In352       O361   2.247       .  S
In352       O364   2.245       .  S
C353        O359   1.261       .  A
C353        O361   1.258       .  A
C353       C1429   1.483       .  S
O354        C362   1.259       .  A
O355        C362   1.257       .  A
C356        O363   1.260       .  A
C356        O357   1.260       .  A
C356       C2196   1.486       .  S
C358        O360   1.264       .  A
C358        O364   1.260       .  A
C358       C1471   1.486       .  S
C362       C1440   1.479       .  S
In365       O367   2.238       .  S
In365       O368   2.269       .  S
In365       O376   2.245       .  S
In365       O370   2.243       .  S
In365       O372   2.247       .  S
In365       O373   2.259       .  S
In365       O374   2.240       .  S
In365       O377   2.241       .  S
C366        O372   1.260       .  A
C366        O374   1.261       .  A
C366       C1398   1.482       .  S
O367        C375   1.257       .  A
O368        C375   1.259       .  A
C369        O376   1.260       .  A
C369        O370   1.261       .  A
C369       C1905   1.484       .  S
C371        O373   1.259       .  A
C371        O377   1.260       .  A
C371       C1426   1.484       .  S
C375       C1412   1.484       .  S
In378       O380   2.237       .  S
In378       O381   2.244       .  S
In378       O389   2.246       .  S
In378       O383   2.250       .  S
In378       O385   2.253       .  S
In378       O386   2.245       .  S
In378       O387   2.244       .  S
In378       O390   2.250       .  S
C379        O385   1.259       .  A
C379        O387   1.261       .  A
C379       C1457   1.483       .  S
O380        C388   1.261       .  A
O381        C388   1.259       .  A
C382        O389   1.261       .  A
C382        O383   1.260       .  A
C382       C1370   1.485       .  S
C384        O386   1.260       .  A
C384        O390   1.258       .  A
C384       C1401   1.482       .  S
C388       C1384   1.480       .  S
In391       O393   2.239   1_554  S
In391       O394   2.242   1_554  S
In391       O402   2.237       .  S
In391       O396   2.254   1_554  S
In391       O398   2.220       .  S
In391       O399   2.242       .  S
In391       O400   2.250   1_554  S
In391       O403   2.243       .  S
C392        O398   1.261   1_556  A
C392        O400   1.259       .  A
C392       C1345   1.477       .  S
O393        C401   1.259       .  A
O394        C401   1.261       .  A
C395        O402   1.262       .  A
C395        O396   1.261   1_554  A
C395       C1356   1.484       .  S
C397        O399   1.262       .  A
C397        O403   1.260       .  A
C397       C2031   1.483       .  S
C401       C1443   1.477       .  S
In404       O406   2.234       .  S
In404       O407   2.255       .  S
In404       O415   2.240       .  S
In404       O409   2.245       .  S
In404       O411   2.246       .  S
In404       O412   2.245   1_554  S
In404       O413   2.252       .  S
In404       O416   2.239   1_554  S
C405        O411   1.261       .  A
C405        O413   1.260       .  A
C405       C1748   1.485       .  S
O406        C414   1.259       .  A
O407        C414   1.261       .  A
C408        O415   1.260       .  A
C408        O409   1.261       .  A
C408       C1639   1.479       .  S
C410        O412   1.263       .  A
C410        O416   1.260       .  A
C410       C1485   1.484       .  S
C414       C2003   1.482       .  S
In417       O419   2.231       .  S
In417       O420   2.245       .  S
In417       O428   2.251       .  S
In417       O422   2.247   1_655  S
In417       O424   2.252   1_655  S
In417       O425   2.246       .  S
In417       O426   2.244   1_655  S
In417       O429   2.241       .  S
C418        O424   1.259       .  A
C418        O426   1.261       .  A
C418       C1303   1.484       .  S
O419        C427   1.260       .  A
O420        C427   1.263       .  A
C421        O428   1.260       .  A
C421        O422   1.261   1_655  A
C421       C1289   1.484       .  S
C423        O425   1.258       .  A
C423        O429   1.258       .  A
C423       C1317   1.479       .  S
C427       C1328   1.477       .  S
In430       O432   2.256       .  S
In430       O433   2.250       .  S
In430       O441   2.255       .  S
In430       O435   2.248   1_554  S
In430       O437   2.236   1_554  S
In430       O438   2.253       .  S
In430       O439   2.268   1_554  S
In430       O442   2.247       .  S
C431        O437   1.259       .  A
C431        O439   1.261       .  A
C431       C1272   1.485       .  S
O432        C440   1.260       .  A
O433        C440   1.260       .  A
C434        O441   1.259       .  A
C434        O435   1.260   1_554  A
C434       C1681   1.484       .  S
C436        O438   1.263       .  A
C436        O442   1.261       .  A
C436       C1300   1.487       .  S
C440       C1359   1.486       .  S
In443       O445   2.244       .  S
In443       O446   2.249   1_554  S
In443       O454   2.242   1_554  S
In443       O448   2.245       .  S
In443       O450   2.260       .  S
In443       O451   2.251   1_554  S
In443       O452   2.230       .  S
In443       O455   2.237   1_554  S
C444        O450   1.259       .  A
C444        O452   1.258       .  A
C444       C1314   1.481       .  S
O445        C453   1.258       .  A
O446        C453   1.261   1_556  A
C447        O454   1.263   1_554  A
C447        O448   1.261       .  A
C447       C1496   1.483       .  S
C449        O451   1.261       .  A
C449        O455   1.258       .  A
C449       C1247   1.482       .  S
C453       C1258   1.478       .  S
In456       O458   2.264       .  S
In456       O459   2.243   1_655  S
In456       O467   2.246   1_655  S
In456       O461   2.238       .  S
In456       O463   2.240       .  S
In456       O464   2.260   1_655  S
In456       O465   2.247       .  S
In456       O468   2.236   1_655  S
C457        O463   1.262       .  A
C457        O465   1.260       .  A
C457       C1244   1.479       .  S
O458        C466   1.259   1_655  A
O459        C466   1.258       .  A
C460        O467   1.262   1_655  A
C460        O461   1.259       .  A
C460       C1216   1.482       .  S
C462        O464   1.263       .  A
C462        O468   1.258       .  A
C462       C1275   1.485       .  S
C466       C1230   1.485       .  S
In469       O471   2.249   1_554  S
In469       O472   2.221       .  S
In469       O480   2.234   1_554  S
In469       O474   2.242       .  S
In469       O476   2.249       .  S
In469       O477   2.228   1_554  S
In469       O478   2.233       .  S
In469       O481   2.253   1_554  S
C470        O476   1.259       .  A
C470        O478   1.260       .  A
C470       C1188   1.480       .  S
O471        C479   1.262   1_556  A
O472        C479   1.258       .  A
C473        O480   1.260   1_554  A
C473        O474   1.261       .  A
C473       C1720   1.477       .  S
C475        O477   1.258       .  A
C475        O481   1.261       .  A
C475       C1205   1.478       .  S
C479       C1342   1.474   1_554  S
In482       O484   2.249       .  S
In482       O485   2.248       .  S
In482       O493   2.247       .  S
In482       O487   2.238   1_455  S
In482       O489   2.258   1_455  S
In482       O490   2.258       .  S
In482       O491   2.233   1_455  S
In482       O494   2.239       .  S
C483        O489   1.261       .  A
C483        O491   1.256       .  A
C483       C1160   1.479       .  S
O484        C492   1.262       .  A
O485        C492   1.263       .  A
C486        O493   1.260       .  A
C486        O487   1.259   1_455  A
C486       C1149   1.480       .  S
C488        O490   1.261       .  A
C488        O494   1.256       .  A
C488       C1191   1.478       .  S
C492       C1174   1.488       .  S
In495       O497   2.244       .  S
In495       O498   2.235       .  S
In495       O506   2.243       .  S
In495       O500   2.259   1_554  S
In495       O502   2.235   1_554  S
In495       O503   2.252       .  S
In495       O504   2.254   1_554  S
In495       O507   2.244       .  S
C496        O502   1.260       .  A
C496        O504   1.261       .  A
C496       C1121   1.483       .  S
O497        C505   1.261       .  A
O498        C505   1.260       .  A
C499        O506   1.259       .  A
C499        O500   1.259   1_554  A
C499       C1597   1.484       .  S
C501        O503   1.259       .  A
C501        O507   1.261       .  A
C501       C1163   1.480       .  S
C505       C1132   1.479       .  S
In508       O510   2.244   1_655  S
In508       O511   2.246       .  S
In508       O519   2.259       .  S
In508       O513   2.227   1_655  S
In508       O515   2.233   1_655  S
In508       O516   2.250       .  S
In508       O517   2.239   1_655  S
In508       O520   2.241       .  S
C509        O515   1.261       .  A
C509        O517   1.260       .  A
C509       C1202   1.478       .  S
O510        C518   1.259   1_455  A
O511        C518   1.260       .  A
C512        O519   1.261       .  A
C512        O513   1.259   1_655  A
C512       C1093   1.482       .  S
C514        O516   1.261       .  A
C514        O520   1.257       .  A
C514       C1118   1.482       .  S
C518       C1107   1.480       .  S
In521       O523   2.224       .  S
In521       O524   2.256   1_655  S
In521       O532   2.244       .  S
In521       O526   2.242   1_655  S
In521       O528   2.244       .  S
In521       O529   2.234   1_655  S
In521       O530   2.252       .  S
In521       O533   2.247   1_655  S
C522        O528   1.259       .  A
C522        O530   1.261       .  A
C522       C1062   1.483       .  S
O523        C531   1.260       .  A
O524        C531   1.261   1_455  A
C525        O532   1.260       .  A
C525        O526   1.259   1_655  A
C525       C1090   1.482       .  S
C527        O529   1.261       .  A
C527        O533   1.259       .  A
C527       C1048   1.479       .  S
C531       C1079   1.478       .  S
In534       O536   2.252       .  S
In534       O537   2.235   1_545  S
In534       O545   2.244       .  S
In534       O539   2.225   1_545  S
In534       O541   2.241       .  S
In534       O542   2.267   1_545  S
In534       O543   2.244       .  S
In534       O546   2.242   1_545  S
C535        O541   1.259       .  A
C535        O543   1.261       .  A
C535       C1051   1.481       .  S
O536        C544   1.260       .  A
O537        C544   1.262   1_565  A
C538        O545   1.260       .  A
C538        O539   1.261   1_545  A
C538       C1653   1.473       .  S
C540        O542   1.259       .  A
C540        O546   1.258       .  A
C540       C1037   1.485       .  S
C544       C1849   1.483       .  S
In547       O549   2.236       .  S
In547       O550   2.252       .  S
In547       O558   2.248       .  S
In547       O552   2.258   1_545  S
In547       O554   2.247   1_545  S
In547       O555   2.239       .  S
In547       O556   2.238   1_545  S
In547       O559   2.270       .  S
C548        O554   1.260       .  A
C548        O556   1.260       .  A
C548       C1006   1.480       .  S
O549        C557   1.263       .  A
O550        C557   1.261       .  A
C551        O558   1.261       .  A
C551        O552   1.259   1_545  A
C551       C1527   1.486       .  S
C553        O555   1.257       .  A
C553        O559   1.259       .  A
C553       C1065   1.484       .  S
C557       C1020   1.483       .  S
In560       O562   2.253       .  S
In560       O563   2.238   1_655  S
In560       O571   2.231       .  S
In560       O565   2.259   1_655  S
In560       O567   2.255   1_655  S
In560       O568   2.243       .  S
In560       O569   2.244   1_655  S
In560       O572   2.240       .  S
C561        O567   1.262       .  A
C561        O569   1.258       .  A
C561       C1034   1.486       .  S
O562        C570   1.260       .  A
O563        C570   1.260   1_455  A
C564        O571   1.260       .  A
C564        O565   1.262   1_655  A
C564       C1219   1.483       .  S
C566        O568   1.259       .  A
C566        O572   1.261       .  A
C566       C1009   1.479       .  S
C570        C995   1.482       .  S
In573       O575   2.240       .  S
In573       O576   2.226   1_545  S
In573       O584   2.242   1_545  S
In573       O578   2.229       .  S
In573       O580   2.238   1_545  S
In573       O581   2.248       .  S
In573       O582   2.243   1_545  S
In573       O585   2.241       .  S
C574        O580   1.260       .  A
C574        O582   1.258       .  A
C574        C981   1.478       .  S
O575        C583   1.262   1_545  A
O576        C583   1.261       .  A
C577        O584   1.260       .  A
C577        O578   1.260   1_565  A
C577       C1762   1.477       .  S
C579        O581   1.258       .  A
C579        O585   1.259       .  A
C579        C967   1.479       .  S
C583       C1835   1.476       .  S
In586       O588   2.229       .  S
In586       O589   2.260   1_455  S
In586       O597   2.250       .  S
In586       O591   2.225   1_455  S
In586       O593   2.239       .  S
In586       O594   2.237   1_455  S
In586       O595   2.235       .  S
In586       O598   2.269   1_455  S
C587        O593   1.260       .  A
C587        O595   1.262       .  A
C587        C964   1.480       .  S
O588        C596   1.256       .  A
O589        C596   1.258   1_655  A
C590        O597   1.262       .  A
C590        O591   1.262   1_455  A
C590       C1146   1.480       .  S
C592        O594   1.257       .  A
C592        O598   1.261       .  A
C592        C936   1.487       .  S
C596        C950   1.476   1_455  S
In599       O601   2.245   1_545  S
In599       O602   2.248       .  S
In599       O610   2.236   1_545  S
In599       O604   2.264       .  S
In599       O606   2.229       .  S
In599       O607   2.256   1_545  S
In599       O608   2.260       .  S
In599       O611   2.240   1_545  S
C600        O606   1.259       .  A
C600        O608   1.261       .  A
C600        C939   1.482       .  S
O601        C609   1.260   1_565  A
O602        C609   1.258       .  A
C603        O610   1.260   1_545  A
C603        O604   1.262       .  A
C603       C1566   1.485       .  S
C605        O607   1.261       .  A
C605        O611   1.261       .  A
C605        C908   1.484       .  S
C609        C925   1.480       .  S
In612       O614   2.238   1_655  S
In612       O615   2.258       .  S
In612       O623   2.255   1_655  S
In612       O617   2.233       .  S
In612       O619   2.255       .  S
In612       O620   2.244   1_655  S
In612       O621   2.253       .  S
In612       O624   2.245   1_655  S
C613        O619   1.258       .  A
C613        O621   1.258       .  A
C613        C911   1.485       .  S
O614        C622   1.261   1_455  A
O615        C622   1.263       .  A
C616        O623   1.261   1_655  A
C616        O617   1.261       .  A
C616       C1286   1.483       .  S
C618        O620   1.260       .  A
C618        O624   1.258       .  A
C618        C978   1.476       .  S
C622        C894   1.486       .  S
In625       O627   2.232       .  S
In625       O628   2.254       .  S
In625       O636   2.235       .  S
In625       O630   2.261       .  S
In625       O632   2.263       .  S
In625       O633   2.246       .  S
In625       O634   2.230       .  S
In625       O637   2.256       .  S
C626        O632   1.260       .  A
C626        O634   1.257       .  A
C626        C866   1.481       .  S
O627        C635   1.261       .  A
O628        C635   1.263       .  A
C629        O636   1.261       .  A
C629        O630   1.261       .  A
C629       C1947   1.485       .  S
C631        O633   1.259       .  A
C631        O637   1.258       .  A
C631        C852   1.483       .  S
C635        C880   1.481       .  S
In638       O640   2.234       .  S
In638       O641   2.245       .  S
In638       O649   2.259       .  S
In638       O643   2.244       .  S
In638       O645   2.248       .  S
In638       O646   2.267       .  S
In638       O647   2.248       .  S
In638       O650   2.234       .  S
C639        O645   1.258       .  A
C639        O647   1.260       .  A
C639        C855   1.482       .  S
O640        C648   1.261       .  A
O641        C648   1.261       .  A
C642        O649   1.261       .  A
C642        O643   1.260       .  A
C642       C1373   1.486       .  S
C644        O646   1.260       .  A
C644        O650   1.259       .  A
C644        C824   1.484       .  S
C648        C838   1.477       .  S
In651       O653   2.255       .  S
In651       O654   2.222       .  S
In651       O662   2.238       .  S
In651       O656   2.239       .  S
In651       O658   2.247       .  S
In651       O659   2.246       .  S
In651       O660   2.240       .  S
In651       O663   2.247       .  S
C652        O658   1.257       .  A
C652        O660   1.259       .  A
C652        C796   1.479       .  S
O653        C661   1.263       .  A
O654        C661   1.261       .  A
C655        O662   1.261       .  A
C655        O656   1.260       .  A
C655       C2045   1.479       .  S
C657        O659   1.259       .  A
C657        O663   1.258       .  A
C657        C869   1.481       .  S
C661        C810   1.481       .  S
In664       O666   2.253       .  S
In664       O667   2.243       .  S
In664       O675   2.247       .  S
In664       O669   2.249       .  S
In664       O671   2.239       .  S
In664       O672   2.238       .  S
In664       O673   2.252       .  S
In664       O676   2.250       .  S
C665        O671   1.259       .  A
C665        O673   1.262       .  A
C665        C827   1.483       .  S
O666        C674   1.260       .  A
O667        C674   1.260       .  A
C668        O675   1.261       .  A
C668        O669   1.260       .  A
C668       C2409   1.482       .  S
C670        O672   1.259       .  A
C670        O676   1.260       .  A
C670        C799   1.480       .  S
C674        C785   1.483       .  S
In677       O679   2.236       .  S
In677       O680   2.246   1_655  S
In677       O688   2.241   1_655  S
In677       O682   2.234   1_655  S
In677       O684   2.261       .  S
In677       O685   2.236       .  S
In677       O686   2.224       .  S
In677       O689   2.228   1_655  S
C678        O684   1.261       .  A
C678        O686   1.260       .  A
C678        C782   1.482       .  S
O679        C687   1.260       .  A
O680        C687   1.260   1_455  A
C681        O688   1.260       .  A
C681        O682   1.261       .  A
C681       C2185   1.479       .  S
C683        O685   1.261       .  A
C683        O689   1.261   1_655  A
C683       C1076   1.477       .  S
C687        C953   1.481       .  S
In690       O692   2.249       .  S
In690       O693   2.234       .  S
In690       O701   2.250   1_655  S
In690       O695   2.234   1_655  S
In690       O697   2.245       .  S
In690       O698   2.258       .  S
In690       O699   2.245       .  S
In690       O702   2.236   1_655  S
C691        O697   1.260       .  A
C691        O699   1.260       .  A
C691        C813   1.483       .  S
O692        C700   1.259       .  A
O693        C700   1.261       .  A
C694        O701   1.261       .  A
C694        O695   1.261       .  A
C694       C2154   1.483       .  S
C696        O698   1.261       .  A
C696        O702   1.261   1_655  A
C696       C1177   1.486   1_655  S
C700       C1331   1.481       .  S
In703       O705   2.258       .  S
In703       O706   2.232       .  S
In703       O714   2.240       .  S
In703       O708   2.256       .  S
In703       O710   2.258       .  S
In703       O711   2.242   1_655  S
In703       O712   2.238       .  S
In703       O715   2.249   1_655  S
C704        O710   1.260       .  A
C704        O712   1.259       .  A
C704        C992   1.482       .  S
O705        C713   1.263       .  A
O706        C713   1.259       .  A
C707        O714   1.260       .  A
C707        O708   1.261       .  A
C707        C897   1.485       .  S
C709        O711   1.258       .  A
C709        O715   1.260       .  A
C709       C2283   1.482       .  S
C713        C883   1.483       .  S
In716       O718   2.244       .  S
In716       O719   2.255       .  S
In716       O727   2.242   1_455  S
In716       O721   2.239   1_455  S
In716       O723   2.238       .  S
In716       O724   2.232       .  S
In716       O725   2.240       .  S
In716       O728   2.248       .  S
C717        O723   1.261       .  A
C717        O725   1.260       .  A
C717       C2227   1.479       .  S
O718        C726   1.259       .  A
O719        C726   1.261       .  A
C720        O727   1.260       .  A
C720        O721   1.261       .  A
C720        C841   1.481       .  S
C722        O724   1.262       .  A
C722        O728   1.261       .  A
C722       C1104   1.481       .  S
C726       C1233   1.485       .  S
In729       O731   2.238   1_545  S
In729       O732   2.241   1_545  S
In729       O740   2.235       .  S
In729       O734   2.254   1_545  S
In729       O736   2.236       .  S
In729       O737   2.251       .  S
In729       O738   2.243       .  S
In729       O741   2.229       .  S
C730        O736   1.263       .  A
C730        O738   1.261       .  A
C730        C922   1.479       .  S
O731        C739   1.261       .  A
O732        C739   1.261       .  A
C733        O740   1.258       .  A
C733        O734   1.261   1_545  A
C733       C1023   1.483       .  S
C735        O737   1.261       .  A
C735        O741   1.259       .  A
C735       C2451   1.477       .  S
C739       C1989   1.478       .  S
In742       O744   2.243       .  S
In742       O745   2.239       .  S
In742       O753   2.240       .  S
In742       O747   2.238       .  S
In742       O749   2.258       .  S
In742       O750   2.240   1_554  S
In742       O751   2.226       .  S
In742       O754   2.241   1_554  S
C743        O749   1.262       .  A
C743        O751   1.259       .  A
C743       C1135   1.478       .  S
O744        C752   1.261       .  A
O745        C752   1.261       .  A
C746        O753   1.260       .  A
C746        O747   1.263       .  A
C746       C1261   1.480       .  S
C748        O750   1.260       .  A
C748        O754   1.259       .  A
C748       C1387   1.479       .  S
C752       C2073   1.477       .  S
In755       O757   2.245   1_554  S
In755       O758   2.242   1_554  S
In755       O766   2.234       .  S
In755       O760   2.258       .  S
In755       O762   2.250       .  S
In755       O763   2.242       .  S
In755       O764   2.241       .  S
In755       O767   2.242       .  S
C756        O762   1.263       .  A
C756        O764   1.260       .  A
C756       C1706   1.486       .  S
O757        C765   1.261       .  A
O758        C765   1.261       .  A
C759        O766   1.259       .  A
C759        O760   1.262       .  A
C759       C1510   1.483       .  S
C761        O763   1.261       .  A
C761        O767   1.261       .  A
C761       C2126   1.483       .  S
C765       C1415   1.481       .  S
In768       O770   2.241       .  S
In768       O771   2.251       .  S
In768       O779   2.246       .  S
In768       O773   2.241       .  S
In768       O775   2.241       .  S
In768       O776   2.265   1_565  S
In768       O777   2.242       .  S
In768       O780   2.250   1_565  S
C769        O775   1.260       .  A
C769        O777   1.260       .  A
C769       C1552   1.479       .  S
O770        C778   1.261       .  A
O771        C778   1.263       .  A
C772        O779   1.261       .  A
C772        O773   1.260       .  A
C772       C1664   1.475       .  S
C774        O776   1.261       .  A
C774        O780   1.258       .  A
C774       C2395   1.488       .  S
C778       C1933   1.487       .  S
C781        C782   1.403       .  A
C781        C786   1.396       .  A
C781        H788   1.082       .  S
C782        C783   1.414       .  A
C783        C784   1.404       .  A
C783        N790   1.429       .  S
C784        C785   1.407       .  A
C784        H789   1.082       .  S
C785        C786   1.411       .  A
C786        N787   1.428       .  S
N787        O791   1.262       .  A
N787        O792   1.262       .  A
N790        O794   1.262       .  A
N790        O793   1.262       .  A
C795        C796   1.404       .  A
C795        C800   1.399       .  A
C795        H802   1.082       .  S
C796        C797   1.412       .  A
C797        C798   1.398       .  A
C797        N804   1.429       .  S
C798        C799   1.404       .  A
C798        H803   1.082       .  S
C799        C800   1.412       .  A
C800        N801   1.429       .  S
N801        O805   1.262       .  A
N801        O806   1.262       .  A
N804        O808   1.262       .  A
N804        O807   1.262       .  A
C809        C810   1.404       .  A
C809        C814   1.397       .  A
C809        H816   1.082       .  S
C810        C811   1.412       .  A
C811        C812   1.402       .  A
C811        N818   1.429       .  S
C812        C813   1.406       .  A
C812        H817   1.082       .  S
C813        C814   1.412       .  A
C814        N815   1.429       .  S
N815        O819   1.262       .  A
N815        O820   1.262       .  A
N818        O822   1.262       .  A
N818        O821   1.262       .  A
C823        C824   1.404       .  A
C823        C828   1.398       .  A
C823        H830   1.082       .  S
C824        C825   1.414       .  A
C825        C826   1.403       .  A
C825        N832   1.429       .  S
C826        C827   1.405       .  A
C826        H831   1.082       .  S
C827        C828   1.413       .  A
C828        N829   1.429       .  S
N829        O833   1.262       .  A
N829        O834   1.262       .  A
N832        O836   1.262       .  A
N832        O835   1.262       .  A
C837        C838   1.402       .  A
C837        C842   1.397       .  A
C837        H844   1.082       .  S
C838        C839   1.412       .  A
C839        C840   1.400       .  A
C839        N846   1.429       .  S
C840        C841   1.405       .  A
C840        H845   1.082       .  S
C841        C842   1.413       .  A
C842        N843   1.428       .  S
N843        O847   1.262       .  A
N843        O848   1.262       .  A
N846        O850   1.262       .  A
N846        O849   1.262       .  A
C851        C852   1.404       .  A
C851        C856   1.399       .  A
C851        H858   1.083       .  S
C852        C853   1.413       .  A
C853        C854   1.400       .  A
C853        N860   1.429       .  S
C854        C855   1.404       .  A
C854        H859   1.083       .  S
C855        C856   1.412       .  A
C856        N857   1.429       .  S
N857        O861   1.262       .  A
N857        O862   1.262       .  A
N860        O864   1.262       .  A
N860        O863   1.262       .  A
C865        C866   1.404       .  A
C865        C870   1.398       .  A
C865        H872   1.082       .  S
C866        C867   1.412       .  A
C867        C868   1.401       .  A
C867        N874   1.429       .  S
C868        C869   1.405       .  A
C868        H873   1.082       .  S
C869        C870   1.412       .  A
C870        N871   1.429       .  S
N871        O875   1.262       .  A
N871        O876   1.262       .  A
N874        O878   1.262       .  A
N874        O877   1.262       .  A
C879        C880   1.404       .  A
C879        C884   1.399       .  A
C879        H886   1.082       .  S
C880        C881   1.411       .  A
C881        C882   1.401       .  A
C881        N888   1.429       .  S
C882        C883   1.407       .  A
C882        H887   1.082       .  S
C883        C884   1.411       .  A
C884        N885   1.428       .  S
N885        O889   1.262       .  A
N885        O890   1.262       .  A
N888        O892   1.262       .  A
N888        O891   1.262       .  A
C893        C894   1.406   1_455  A
C893        C898   1.401       .  A
C893        H900   1.082       .  S
C894        C895   1.412       .  A
C895        C896   1.401       .  A
C895        N902   1.429       .  S
C896        C897   1.405       .  A
C896        H901   1.082       .  S
C897        C898   1.412   1_655  A
C898        N899   1.429       .  S
N899        O903   1.262       .  A
N899        O904   1.262   1_455  A
N902        O906   1.262       .  A
N902        O905   1.262   1_655  A
C907        C908   1.404       .  A
C907        C912   1.400       .  A
C907        H914   1.082       .  S
C908        C909   1.413       .  A
C909        C910   1.402       .  A
C909        N916   1.429       .  S
C910        C911   1.406       .  A
C910        H915   1.082       .  S
C911        C912   1.413       .  A
C912        N913   1.429       .  S
N913        O917   1.262       .  A
N913        O918   1.262       .  A
N916        O920   1.262       .  A
N916        O919   1.262       .  A
C921        C922   1.403       .  A
C921        C926   1.399       .  A
C921        H928   1.082       .  S
C922        C923   1.412   1_545  A
C923        C924   1.399       .  A
C923        N930   1.429       .  S
C924        C925   1.404   1_565  A
C924        H929   1.082       .  S
C925        C926   1.413       .  A
C926        N927   1.429       .  S
N927        O931   1.262       .  A
N927        O932   1.262       .  A
N930        O934   1.262       .  A
N930        O933   1.262       .  A
C935        C936   1.408       .  A
C935        C940   1.405       .  A
C935        H942   1.083       .  S
C936        C937   1.414       .  A
C937        C938   1.396       .  A
C937        N944   1.429       .  S
C938        C939   1.402       .  A
C938        H943   1.084       .  S
C939        C940   1.412       .  A
C940        N941   1.429       .  S
N941        O945   1.262       .  A
N941        O946   1.262       .  A
N944        O948   1.262       .  A
N944        O947   1.262       .  A
C949        C950   1.403   1_455  A
C949        C954   1.397   1_455  A
C949        H956   1.083       .  S
C950        C951   1.410       .  A
C951        C952   1.399       .  A
C951        N958   1.429       .  S
C952        C953   1.406       .  A
C952        H957   1.082       .  S
C953        C954   1.413       .  A
C954        N955   1.429   1_655  S
N955        O959   1.262   1_455  A
N955        O960   1.262       .  A
N958        O962   1.262   1_655  A
N958        O961   1.262       .  A
C963        C964   1.404       .  A
C963        C968   1.398       .  A
C963        H970   1.082       .  S
C964        C965   1.413       .  A
C965        C966   1.398       .  A
C965        N972   1.429       .  S
C966        C967   1.404       .  A
C966        H971   1.082       .  S
C967        C968   1.412       .  A
C968        N969   1.429       .  S
N969        O973   1.262       .  A
N969        O974   1.262       .  A
N972        O976   1.262       .  A
N972        O975   1.262       .  A
C977        C978   1.403       .  A
C977        C982   1.399       .  A
C977        H984   1.083       .  S
C978        C979   1.411       .  A
C979        C980   1.398       .  A
C979        N986   1.429       .  S
C980        C981   1.403       .  A
C980        H985   1.083       .  S
C981        C982   1.413       .  A
C982        N983   1.429       .  S
N983        O987   1.262       .  A
N983        O988   1.262       .  A
N986        O990   1.262       .  A
N986        O989   1.262       .  A
C991        C992   1.405       .  A
C991        C996   1.400       .  A
C991        H998   1.082       .  S
C992        C993   1.412       .  A
C993        C994   1.399       .  A
C993       N1000   1.429       .  S
C994        C995   1.405       .  A
C994        H999   1.082       .  S
C995        C996   1.413       .  A
C996        N997   1.429       .  S
N997       O1001   1.262       .  A
N997       O1002   1.262   1_655  A
N1000      O1004   1.262   1_655  A
N1000      O1003   1.262       .  A
C1005      C1006   1.404       .  A
C1005      C1010   1.398       .  A
C1005      H1012   1.082       .  S
C1006      C1007   1.412       .  A
C1007      C1008   1.399       .  A
C1007      N1014   1.429       .  S
C1008      C1009   1.404       .  A
C1008      H1013   1.082       .  S
C1009      C1010   1.412       .  A
C1010      N1011   1.429       .  S
N1011      O1015   1.262       .  A
N1011      O1016   1.262       .  A
N1014      O1018   1.262       .  A
N1014      O1017   1.262       .  A
C1019      C1020   1.403       .  A
C1019      C1024   1.397       .  A
C1019      H1026   1.082       .  S
C1020      C1021   1.414   1_545  A
C1021      C1022   1.403       .  A
C1021      N1028   1.429       .  S
C1022      C1023   1.405   1_565  A
C1022      H1027   1.082       .  S
C1023      C1024   1.413       .  A
C1024      N1025   1.429       .  S
N1025      O1029   1.262       .  A
N1025      O1030   1.262       .  A
N1028      O1032   1.262   1_565  A
N1028      O1031   1.262       .  A
C1033      C1034   1.405       .  A
C1033      C1038   1.403       .  A
C1033      H1040   1.082       .  S
C1034      C1035   1.414       .  A
C1035      C1036   1.399       .  A
C1035      N1042   1.429       .  S
C1036      C1037   1.404       .  A
C1036      H1041   1.083       .  S
C1037      C1038   1.413       .  A
C1038      N1039   1.429       .  S
N1039      O1043   1.262       .  A
N1039      O1044   1.262       .  A
N1042      O1046   1.262       .  A
N1042      O1045   1.262       .  A
C1047      C1048   1.403       .  A
C1047      C1052   1.397       .  A
C1047      H1054   1.082       .  S
C1048      C1049   1.413       .  A
C1049      C1050   1.399       .  A
C1049      N1056   1.429       .  S
C1050      C1051   1.405       .  A
C1050      H1055   1.082       .  S
C1051      C1052   1.413       .  A
C1052      N1053   1.429       .  S
N1053      O1057   1.262       .  A
N1053      O1058   1.262       .  A
N1056      O1060   1.262       .  A
N1056      O1059   1.262       .  A
C1061      C1062   1.406       .  A
C1061      C1066   1.403       .  A
C1061      H1068   1.082       .  S
C1062      C1063   1.412       .  A
C1063      C1064   1.398       .  A
C1063      N1070   1.429       .  S
C1064      C1065   1.404       .  A
C1064      H1069   1.082       .  S
C1065      C1066   1.413       .  A
C1066      N1067   1.429       .  S
N1067      O1071   1.262       .  A
N1067      O1072   1.262       .  A
N1070      O1074   1.262       .  A
N1070      O1073   1.262       .  A
C1075      C1076   1.405   1_455  A
C1075      C1080   1.399       .  A
C1075      H1082   1.082       .  S
C1076      C1077   1.411       .  A
C1077      C1078   1.396       .  A
C1077      N1084   1.429       .  S
C1078      C1079   1.405       .  A
C1078      H1083   1.082       .  S
C1079      C1080   1.412   1_655  A
C1080      N1081   1.429       .  S
N1081      O1085   1.262       .  A
N1081      O1086   1.262       .  A
N1084      O1088   1.262       .  A
N1084      O1087   1.262       .  A
C1089      C1090   1.405       .  A
C1089      C1094   1.401       .  A
C1089      H1096   1.082       .  S
C1090      C1091   1.412   1_655  A
C1091      C1092   1.398       .  A
C1091      N1098   1.429       .  S
C1092      C1093   1.405   1_455  A
C1092      H1097   1.082       .  S
C1093      C1094   1.412       .  A
C1094      N1095   1.429       .  S
N1095      O1099   1.262       .  A
N1095      O1100   1.262       .  A
N1098      O1102   1.262       .  A
N1098      O1101   1.262       .  A
C1103      C1104   1.404   1_655  A
C1103      C1108   1.398       .  A
C1103      H1110   1.082       .  S
C1104      C1105   1.414       .  A
C1105      C1106   1.401       .  A
C1105      N1112   1.429       .  S
C1106      C1107   1.404   1_455  A
C1106      H1111   1.082       .  S
C1107      C1108   1.411       .  A
C1108      N1109   1.429       .  S
N1109      O1113   1.262   1_655  A
N1109      O1114   1.262       .  A
N1112      O1116   1.262   1_455  A
N1112      O1115   1.262       .  A
C1117      C1118   1.404       .  A
C1117      C1122   1.401       .  A
C1117      H1124   1.082       .  S
C1118      C1119   1.414       .  A
C1119      C1120   1.398       .  A
C1119      N1126   1.430       .  S
C1120      C1121   1.404       .  A
C1120      H1125   1.082       .  S
C1121      C1122   1.413       .  A
C1122      N1123   1.429       .  S
N1123      O1127   1.262       .  A
N1123      O1128   1.262       .  A
N1126      O1130   1.262       .  A
N1126      O1129   1.262       .  A
C1131      C1132   1.405       .  A
C1131      C1136   1.400       .  A
C1131      H1138   1.082   1_554  S
C1132      C1133   1.411       .  A
C1133      C1134   1.397       .  A
C1133      N1140   1.429       .  S
C1134      C1135   1.404       .  A
C1134      H1139   1.082       .  S
C1135      C1136   1.411       .  A
C1136      N1137   1.429   1_554  S
N1137      O1141   1.262       .  A
N1137      O1142   1.262       .  A
N1140      O1144   1.262       .  A
N1140      O1143   1.262       .  A
C1145      C1146   1.403   1_655  A
C1145      C1150   1.396       .  A
C1145      H1152   1.082       .  S
C1146      C1147   1.413       .  A
C1147      C1148   1.401       .  A
C1147      N1154   1.429       .  S
C1148      C1149   1.405       .  A
C1148      H1153   1.082       .  S
C1149      C1150   1.412   1_455  A
C1150      N1151   1.429       .  S
N1151      O1155   1.262       .  A
N1151      O1156   1.262       .  A
N1154      O1158   1.262       .  A
N1154      O1157   1.262       .  A
C1159      C1160   1.403       .  A
C1159      C1164   1.402       .  A
C1159      H1166   1.082       .  S
C1160      C1161   1.412       .  A
C1161      C1162   1.398       .  A
C1161      N1168   1.429       .  S
C1162      C1163   1.402       .  A
C1162      H1167   1.083       .  S
C1163      C1164   1.413       .  A
C1164      N1165   1.429       .  S
N1165      O1169   1.262       .  A
N1165      O1170   1.262       .  A
N1168      O1172   1.261       .  A
N1168      O1171   1.262       .  A
C1173      C1174   1.406       .  A
C1173      C1178   1.403   1_455  A
C1173      H1180   1.082   1_455  S
C1174      C1175   1.414       .  A
C1175      C1176   1.400       .  A
C1175      N1182   1.429       .  S
C1176      C1177   1.404       .  A
C1176      H1181   1.082       .  S
C1177      C1178   1.413   1_455  A
C1178      N1179   1.429       .  S
N1179      O1183   1.262   1_655  A
N1179      O1184   1.262       .  A
N1182      O1186   1.262       .  A
N1182      O1185   1.262       .  A
C1187      C1188   1.402       .  A
C1187      C1192   1.396       .  A
C1187      H1194   1.083       .  S
C1188      C1189   1.413       .  A
C1189      C1190   1.401       .  A
C1189      N1196   1.428       .  S
C1190      C1191   1.403       .  A
C1190      H1195   1.083       .  S
C1191      C1192   1.412       .  A
C1192      N1193   1.428       .  S
N1193      O1197   1.262       .  A
N1193      O1198   1.262       .  A
N1196      O1200   1.262       .  A
N1196      O1199   1.262       .  A
C1201      C1202   1.405       .  A
C1201      C1206   1.399       .  A
C1201      H1208   1.082       .  S
C1202      C1203   1.412       .  A
C1203      C1204   1.397       .  A
C1203      N1210   1.429       .  S
C1204      C1205   1.404       .  A
C1204      H1209   1.082       .  S
C1205      C1206   1.411       .  A
C1206      N1207   1.429       .  S
N1207      O1211   1.262       .  A
N1207      O1212   1.262       .  A
N1210      O1214   1.262       .  A
N1210      O1213   1.262       .  A
C1215      C1216   1.405   1_455  A
C1215      C1220   1.401       .  A
C1215      H1222   1.082       .  S
C1216      C1217   1.413       .  A
C1217      C1218   1.398       .  A
C1217      N1224   1.429       .  S
C1218      C1219   1.405       .  A
C1218      H1223   1.082       .  S
C1219      C1220   1.412   1_655  A
C1220      N1221   1.429       .  S
N1221      O1225   1.262       .  A
N1221      O1226   1.262       .  A
N1224      O1228   1.262       .  A
N1224      O1227   1.262       .  A
C1229      C1230   1.405       .  A
C1229      C1234   1.400       .  A
C1229      H1236   1.082       .  S
C1230      C1231   1.413       .  A
C1231      C1232   1.402       .  A
C1231      N1238   1.429   1_455  S
C1232      C1233   1.406       .  A
C1232      H1237   1.082   1_455  S
C1233      C1234   1.412       .  A
C1234      N1235   1.429       .  S
N1235      O1239   1.262       .  A
N1235      O1240   1.262       .  A
N1238      O1242   1.262       .  A
N1238      O1241   1.262   1_655  A
C1243      C1244   1.403       .  A
C1243      C1248   1.397       .  A
C1243      H1250   1.083       .  S
C1244      C1245   1.413       .  A
C1245      C1246   1.401       .  A
C1245      N1252   1.429       .  S
C1246      C1247   1.405       .  A
C1246      H1251   1.082       .  S
C1247      C1248   1.413       .  A
C1248      N1249   1.429       .  S
N1249      O1253   1.262       .  A
N1249      O1254   1.262       .  A
N1252      O1256   1.262       .  A
N1252      O1255   1.262       .  A
C1257      C1258   1.402       .  A
C1257      C1262   1.400       .  A
C1257      H1264   1.083       .  S
C1258      C1259   1.412       .  A
C1259      C1260   1.399       .  A
C1259      N1266   1.429       .  S
C1260      C1261   1.403       .  A
C1260      H1265   1.082       .  S
C1261      C1262   1.413       .  A
C1262      N1263   1.429       .  S
N1263      O1267   1.262       .  A
N1263      O1268   1.262   1_554  A
N1266      O1270   1.262   1_554  A
N1266      O1269   1.262       .  A
C1271      C1272   1.403       .  A
C1271      C1276   1.397       .  A
C1271      H1278   1.082       .  S
C1272      C1273   1.413       .  A
C1273      C1274   1.404       .  A
C1273      N1280   1.429       .  S
C1274      C1275   1.406       .  A
C1274      H1279   1.082       .  S
C1275      C1276   1.414       .  A
C1276      N1277   1.430       .  S
N1277      O1281   1.262       .  A
N1277      O1282   1.262       .  A
N1280      O1284   1.262       .  A
N1280      O1283   1.262       .  A
C1285      C1286   1.404       .  A
C1285      C1290   1.398       .  A
C1285      H1292   1.082       .  S
C1286      C1287   1.413   1_655  A
C1287      C1288   1.402       .  A
C1287      N1294   1.429       .  S
C1288      C1289   1.406   1_455  A
C1288      H1293   1.082       .  S
C1289      C1290   1.413       .  A
C1290      N1291   1.428       .  S
N1291      O1295   1.262       .  A
N1291      O1296   1.262       .  A
N1294      O1298   1.262       .  A
N1294      O1297   1.262       .  A
C1299      C1300   1.406       .  A
C1299      C1304   1.402       .  A
C1299      H1306   1.081       .  S
C1300      C1301   1.414       .  A
C1301      C1302   1.400       .  A
C1301      N1308   1.429       .  S
C1302      C1303   1.403       .  A
C1302      H1307   1.082       .  S
C1303      C1304   1.414       .  A
C1304      N1305   1.430       .  S
N1305      O1309   1.262       .  A
N1305      O1310   1.262       .  A
N1308      O1312   1.262       .  A
N1308      O1311   1.262       .  A
C1313      C1314   1.404       .  A
C1313      C1318   1.397       .  A
C1313      H1320   1.083       .  S
C1314      C1315   1.413       .  A
C1315      C1316   1.400       .  A
C1315      N1322   1.429       .  S
C1316      C1317   1.405       .  A
C1316      H1321   1.083       .  S
C1317      C1318   1.412       .  A
C1318      N1319   1.429       .  S
N1319      O1323   1.262       .  A
N1319      O1324   1.262       .  A
N1322      O1326   1.262       .  A
N1322      O1325   1.262       .  A
C1327      C1328   1.403       .  A
C1327      C1332   1.400       .  A
C1327      H1334   1.082       .  S
C1328      C1329   1.412       .  A
C1329      C1330   1.397       .  A
C1329      N1336   1.429       .  S
C1330      C1331   1.404       .  A
C1330      H1335   1.082       .  S
C1331      C1332   1.414       .  A
C1332      N1333   1.429       .  S
N1333      O1337   1.262   1_655  A
N1333      O1338   1.262       .  A
N1336      O1340   1.262       .  A
N1336      O1339   1.262   1_655  A
C1341      C1342   1.403       .  A
C1341      C1346   1.401       .  A
C1341      H1348   1.082       .  S
C1342      C1343   1.410   1_556  A
C1343      C1344   1.393       .  A
C1343      N1350   1.429       .  S
C1344      C1345   1.402   1_554  A
C1344      H1349   1.082       .  S
C1345      C1346   1.414       .  A
C1346      N1347   1.429       .  S
N1347      O1351   1.262   1_556  A
N1347      O1352   1.262       .  A
N1350      O1354   1.262   1_554  A
N1350      O1353   1.262       .  A
C1355      C1356   1.403       .  A
C1355      C1360   1.398       .  A
C1355      H1362   1.089       .  S
C1356      C1357   1.414   1_554  A
C1357      C1358   1.402       .  A
C1357      N1364   1.429       .  S
C1358      C1359   1.406   1_556  A
C1358      H1363   1.087       .  S
C1359      C1360   1.413       .  A
C1360      N1361   1.428       .  S
N1361      O1365   1.262       .  A
N1361      O1366   1.262       .  A
N1364      O1368   1.262       .  A
N1364      O1367   1.262       .  A
C1369      C1370   1.405       .  A
C1369      C1374   1.402       .  A
C1369      H1376   1.082       .  S
C1370      C1371   1.413       .  A
C1371      C1372   1.401       .  A
C1371      N1378   1.429       .  S
C1372      C1373   1.405       .  A
C1372      H1377   1.082       .  S
C1373      C1374   1.413       .  A
C1374      N1375   1.429       .  S
N1375      O1379   1.262       .  A
N1375      O1380   1.262       .  A
N1378      O1382   1.262       .  A
N1378      O1381   1.262       .  A
C1383      C1384   1.404       .  A
C1383      C1388   1.398       .  A
C1383      H1390   1.082       .  S
C1384      C1385   1.413       .  A
C1385      C1386   1.399       .  A
C1385      N1392   1.429       .  S
C1386      C1387   1.404       .  A
C1386      H1391   1.082       .  S
C1387      C1388   1.412       .  A
C1388      N1389   1.430       .  S
N1389      O1393   1.262       .  A
N1389      O1394   1.262       .  A
N1392      O1396   1.262       .  A
N1392      O1395   1.262       .  A
C1397      C1398   1.405       .  A
C1397      C1402   1.400       .  A
C1397      H1404   1.082       .  S
C1398      C1399   1.412       .  A
C1399      C1400   1.399       .  A
C1399      N1406   1.429       .  S
C1400      C1401   1.404       .  A
C1400      H1405   1.082       .  S
C1401      C1402   1.413       .  A
C1402      N1403   1.429       .  S
N1403      O1407   1.262       .  A
N1403      O1408   1.262       .  A
N1406      O1410   1.262       .  A
N1406      O1409   1.262       .  A
C1411      C1412   1.405       .  A
C1411      C1416   1.398       .  A
C1411      H1418   1.082       .  S
C1412      C1413   1.413       .  A
C1413      C1414   1.402       .  A
C1413      N1420   1.429       .  S
C1414      C1415   1.405       .  A
C1414      H1419   1.082       .  S
C1415      C1416   1.411       .  A
C1416      N1417   1.429       .  S
N1417      O1421   1.262       .  A
N1417      O1422   1.262       .  A
N1420      O1424   1.262       .  A
N1420      O1423   1.262       .  A
C1425      C1426   1.404       .  A
C1425      C1430   1.400       .  A
C1425      H1432   1.082       .  S
C1426      C1427   1.414       .  A
C1427      C1428   1.403       .  A
C1427      N1434   1.431       .  S
C1428      C1429   1.405       .  A
C1428      H1433   1.082       .  S
C1429      C1430   1.410       .  A
C1430      N1431   1.429       .  S
N1431      O1435   1.262       .  A
N1431      O1436   1.262       .  A
N1434      O1438   1.262       .  A
N1434      O1437   1.262       .  A
C1439      C1440   1.404       .  A
C1439      C1444   1.396       .  A
C1439      H1446   1.082       .  S
C1440      C1441   1.412       .  A
C1441      C1442   1.401       .  A
C1441      N1448   1.429       .  S
C1442      C1443   1.405       .  A
C1442      H1447   1.082       .  S
C1443      C1444   1.410       .  A
C1444      N1445   1.429       .  S
N1445      O1449   1.262       .  A
N1445      O1450   1.262       .  A
N1448      O1452   1.262       .  A
N1448      O1451   1.262       .  A
C1453      C1454   1.405       .  A
C1453      C1458   1.400       .  A
C1453      H1460   1.083       .  S
C1454      C1455   1.413       .  A
C1455      C1456   1.400       .  A
C1455      N1462   1.429       .  S
C1456      C1457   1.404       .  A
C1456      H1461   1.082       .  S
C1457      C1458   1.413       .  A
C1458      N1459   1.429       .  S
N1459      O1463   1.262       .  A
N1459      O1464   1.262       .  A
N1462      O1466   1.262       .  A
N1462      O1465   1.262       .  A
C1467      C1468   1.404       .  A
C1467      C1472   1.401       .  A
C1467      H1474   1.082       .  S
C1468      C1469   1.413       .  A
C1469      C1470   1.401       .  A
C1469      N1476   1.429       .  S
C1470      C1471   1.404       .  A
C1470      H1475   1.082       .  S
C1471      C1472   1.415       .  A
C1472      N1473   1.429       .  S
N1473      O1477   1.262       .  A
N1473      O1478   1.262       .  A
N1476      O1480   1.262       .  A
N1476      O1479   1.262       .  A
C1481      C1482   1.406       .  A
C1481      C1486   1.402       .  A
C1481      H1488   1.084       .  S
C1482      C1483   1.414       .  A
C1483      C1484   1.400       .  A
C1483      N1490   1.428       .  S
C1484      C1485   1.403       .  A
C1484      H1489   1.084       .  S
C1485      C1486   1.414       .  A
C1486      N1487   1.429       .  S
N1487      O1491   1.262       .  A
N1487      O1492   1.262       .  A
N1490      O1494   1.262       .  A
N1490      O1493   1.262       .  A
C1495      C1496   1.404   1_556  A
C1495      C1500   1.401       .  A
C1495      H1502   1.082       .  S
C1496      C1497   1.413       .  A
C1497      C1498   1.400       .  A
C1497      N1504   1.429       .  S
C1498      C1499   1.404       .  A
C1498      H1503   1.082       .  S
C1499      C1500   1.414   1_554  A
C1500      N1501   1.429       .  S
N1501      O1505   1.262       .  A
N1501      O1506   1.262       .  A
N1504      O1508   1.262       .  A
N1504      O1507   1.262       .  A
C1509      C1510   1.405       .  A
C1509      C1514   1.404       .  A
C1509      H1516   1.082       .  S
C1510      C1511   1.412   1_554  A
C1511      C1512   1.396   1_556  A
C1511      N1518   1.429       .  S
C1512      C1513   1.403       .  A
C1512      H1517   1.082   1_554  S
C1513      C1514   1.415       .  A
C1514      N1515   1.429       .  S
N1515      O1519   1.262       .  A
N1515      O1520   1.262       .  A
N1518      O1522   1.262   1_556  A
N1518      O1521   1.262       .  A
C1523      C1524   1.406   1_565  A
C1523      C1528   1.403       .  A
C1523      H1530   1.082       .  S
C1524      C1525   1.413       .  A
C1525      C1526   1.400       .  A
C1525      N1532   1.428       .  S
C1526      C1527   1.404       .  A
C1526      H1531   1.082       .  S
C1527      C1528   1.414   1_545  A
C1528      N1529   1.430       .  S
N1529      O1533   1.262       .  A
N1529      O1534   1.262       .  A
N1532      O1536   1.262       .  A
N1532      O1535   1.262       .  A
C1537      C1538   1.404       .  A
C1537      C1542   1.399       .  A
C1537      H1544   1.083       .  S
C1538      C1539   1.412       .  A
C1539      C1540   1.396       .  A
C1539      N1546   1.429       .  S
C1540      C1541   1.404       .  A
C1540      H1545   1.083       .  S
C1541      C1542   1.412       .  A
C1542      N1543   1.429       .  S
N1543      O1547   1.262       .  A
N1543      O1548   1.262       .  A
N1546      O1550   1.262       .  A
N1546      O1549   1.262       .  A
C1551      C1552   1.405       .  A
C1551      C1556   1.400       .  A
C1551      H1558   1.082       .  S
C1552      C1553   1.412       .  A
C1553      C1554   1.397       .  A
C1553      N1560   1.429       .  S
C1554      C1555   1.402       .  A
C1554      H1559   1.082       .  S
C1555      C1556   1.412       .  A
C1556      N1557   1.430       .  S
N1557      O1561   1.262   1_565  A
N1557      O1562   1.262       .  A
N1560      O1564   1.262       .  A
N1560      O1563   1.262   1_565  A
C1565      C1566   1.405   1_565  A
C1565      C1570   1.399       .  A
C1565      H1572   1.082       .  S
C1566      C1567   1.412       .  A
C1567      C1568   1.402       .  A
C1567      N1574   1.429       .  S
C1568      C1569   1.406       .  A
C1568      H1573   1.082       .  S
C1569      C1570   1.413   1_545  A
C1570      N1571   1.429       .  S
N1571      O1575   1.262       .  A
N1571      O1576   1.262       .  A
N1574      O1578   1.262       .  A
N1574      O1577   1.262       .  A
C1579      C1580   1.404       .  A
C1579      C1584   1.398       .  A
C1579      H1586   1.082       .  S
C1580      C1581   1.413       .  A
C1581      C1582   1.401       .  A
C1581      N1588   1.429       .  S
C1582      C1583   1.405       .  A
C1582      H1587   1.082       .  S
C1583      C1584   1.412       .  A
C1584      N1585   1.429       .  S
N1585      O1589   1.262       .  A
N1585      O1590   1.262       .  A
N1588      O1592   1.262       .  A
N1588      O1591   1.262       .  A
C1593      C1594   1.406   1_556  A
C1593      C1598   1.401       .  A
C1593      H1600   1.082       .  S
C1594      C1595   1.413       .  A
C1595      C1596   1.400       .  A
C1595      N1602   1.429       .  S
C1596      C1597   1.404       .  A
C1596      H1601   1.082       .  S
C1597      C1598   1.413   1_554  A
C1598      N1599   1.429       .  S
N1599      O1603   1.262       .  A
N1599      O1604   1.262       .  A
N1602      O1606   1.262       .  A
N1602      O1605   1.262       .  A
C1607      C1608   1.404       .  A
C1607      C1612   1.402       .  A
C1607      H1614   1.082       .  S
C1608      C1609   1.413       .  A
C1609      C1610   1.400       .  A
C1609      N1616   1.429       .  S
C1610      C1611   1.405       .  A
C1610      H1615   1.082       .  S
C1611      C1612   1.413       .  A
C1612      N1613   1.428       .  S
N1613      O1617   1.262       .  A
N1613      O1618   1.262       .  A
N1616      O1620   1.262       .  A
N1616      O1619   1.262       .  A
C1621      C1622   1.405       .  A
C1621      C1626   1.401       .  A
C1621      H1628   1.082       .  S
C1622      C1623   1.413       .  A
C1623      C1624   1.398       .  A
C1623      N1630   1.429       .  S
C1624      C1625   1.404       .  A
C1624      H1629   1.082       .  S
C1625      C1626   1.412       .  A
C1626      N1627   1.429       .  S
N1627      O1631   1.262       .  A
N1627      O1632   1.262       .  A
N1630      O1634   1.262       .  A
N1630      O1633   1.262       .  A
C1635      C1636   1.404       .  A
C1635      C1640   1.397       .  A
C1635      H1642   1.083       .  S
C1636      C1637   1.412   1_554  A
C1637      C1638   1.402       .  A
C1637      N1644   1.429       .  S
C1638      C1639   1.405   1_556  A
C1638      H1643   1.083       .  S
C1639      C1640   1.410       .  A
C1640      N1641   1.429       .  S
N1641      O1645   1.262       .  A
N1641      O1646   1.262       .  A
N1644      O1648   1.262       .  A
N1644      O1647   1.262       .  A
C1649      C1650   1.405       .  A
C1649      C1654   1.399       .  A
C1649      H1656   1.082       .  S
C1650      C1651   1.412   1_545  A
C1651      C1652   1.395       .  A
C1651      N1658   1.429       .  S
C1652      C1653   1.401   1_565  A
C1652      H1657   1.083       .  S
C1653      C1654   1.411       .  A
C1654      N1655   1.430       .  S
N1655      O1659   1.262       .  A
N1655      O1660   1.262       .  A
N1658      O1662   1.262       .  A
N1658      O1661   1.262       .  A
C1663      C1664   1.403   1_545  A
C1663      C1668   1.401       .  A
C1663      H1670   1.083       .  S
C1664      C1665   1.409       .  A
C1665      C1666   1.397       .  A
C1665      N1672   1.429       .  S
C1666      C1667   1.404       .  A
C1666      H1671   1.082       .  S
C1667      C1668   1.414   1_565  A
C1668      N1669   1.429       .  S
N1669      O1673   1.262       .  A
N1669      O1674   1.262       .  A
N1672      O1676   1.262       .  A
N1672      O1675   1.262       .  A
C1677      C1678   1.406       .  A
C1677      C1682   1.401       .  A
C1677      H1684   1.082       .  S
C1678      C1679   1.413   1_554  A
C1679      C1680   1.401       .  A
C1679      N1686   1.429       .  S
C1680      C1681   1.404   1_556  A
C1680      H1685   1.082       .  S
C1681      C1682   1.412       .  A
C1682      N1683   1.429       .  S
N1683      O1687   1.262       .  A
N1683      O1688   1.262       .  A
N1686      O1690   1.262       .  A
N1686      O1689   1.262       .  A
C1691      C1692   1.404       .  A
C1691      C1696   1.400       .  A
C1691      H1698   1.083       .  S
C1692      C1693   1.413       .  A
C1693      C1694   1.395       .  A
C1693      N1700   1.429       .  S
C1694      C1695   1.402       .  A
C1694      H1699   1.083       .  S
C1695      C1696   1.412       .  A
C1696      N1697   1.429       .  S
N1697      O1701   1.262       .  A
N1697      O1702   1.262       .  A
N1700      O1704   1.262       .  A
N1700      O1703   1.262       .  A
C1705      C1706   1.405       .  A
C1705      C1710   1.402       .  A
C1705      H1712   1.082       .  S
C1706      C1707   1.415       .  A
C1707      C1708   1.400       .  A
C1707      N1714   1.429       .  S
C1708      C1709   1.401       .  A
C1708      H1713   1.082       .  S
C1709      C1710   1.413       .  A
C1710      N1711   1.429       .  S
N1711      O1715   1.262       .  A
N1711      O1716   1.262   1_554  A
N1714      O1718   1.262   1_554  A
N1714      O1717   1.262       .  A
C1719      C1720   1.404   1_556  A
C1719      C1724   1.399       .  A
C1719      H1726   1.083       .  S
C1720      C1721   1.410       .  A
C1721      C1722   1.398       .  A
C1721      N1728   1.429       .  S
C1722      C1723   1.404       .  A
C1722      H1727   1.083       .  S
C1723      C1724   1.412   1_554  A
C1724      N1725   1.429       .  S
N1725      O1729   1.262       .  A
N1725      O1730   1.262       .  A
N1728      O1732   1.262       .  A
N1728      O1731   1.262       .  A
C1733      C1734   1.403       .  A
C1733      C1738   1.397       .  A
C1733      H1740   1.082       .  S
C1734      C1735   1.412       .  A
C1735      C1736   1.399       .  A
C1735      N1742   1.430       .  S
C1736      C1737   1.405       .  A
C1736      H1741   1.082       .  S
C1737      C1738   1.411       .  A
C1738      N1739   1.429       .  S
N1739      O1743   1.262       .  A
N1739      O1744   1.262       .  A
N1742      O1746   1.262       .  A
N1742      O1745   1.262       .  A
C1747      C1748   1.406       .  A
C1747      C1752   1.401       .  A
C1747      H1754   1.082   1_554  S
C1748      C1749   1.413       .  A
C1749      C1750   1.399       .  A
C1749      N1756   1.429       .  S
C1750      C1751   1.404       .  A
C1750      H1755   1.082       .  S
C1751      C1752   1.412       .  A
C1752      N1753   1.429   1_554  S
N1753      O1757   1.262       .  A
N1753      O1758   1.262   1_556  A
N1756      O1760   1.262       .  A
N1756      O1759   1.262       .  A
C1761      C1762   1.404   1_545  A
C1761      C1766   1.397       .  A
C1761      H1768   1.082       .  S
C1762      C1763   1.412       .  A
C1763      C1764   1.397       .  A
C1763      N1770   1.429       .  S
C1764      C1765   1.403       .  A
C1764      H1769   1.082       .  S
C1765      C1766   1.413   1_565  A
C1766      N1767   1.430       .  S
N1767      O1771   1.262       .  A
N1767      O1772   1.262       .  A
N1770      O1774   1.262       .  A
N1770      O1773   1.262       .  A
C1775      C1776   1.403       .  A
C1775      C1780   1.397       .  A
C1775      H1782   1.083       .  S
C1776      C1777   1.413       .  A
C1777      C1778   1.401       .  A
C1777      N1784   1.430       .  S
C1778      C1779   1.405       .  A
C1778      H1783   1.082       .  S
C1779      C1780   1.411       .  A
C1780      N1781   1.429       .  S
N1781      O1785   1.262       .  A
N1781      O1786   1.262       .  A
N1784      O1788   1.262       .  A
N1784      O1787   1.262       .  A
C1789      C1790   1.405       .  A
C1789      C1794   1.402       .  A
C1789      H1796   1.082       .  S
C1790      C1791   1.413       .  A
C1791      C1792   1.398       .  A
C1791      N1798   1.429       .  S
C1792      C1793   1.405       .  A
C1792      H1797   1.082       .  S
C1793      C1794   1.413       .  A
C1794      N1795   1.429       .  S
N1795      O1799   1.262       .  A
N1795      O1800   1.262       .  A
N1798      O1802   1.262       .  A
N1798      O1801   1.262       .  A
C1803      C1804   1.405       .  A
C1803      C1808   1.399       .  A
C1803      H1810   1.083       .  S
C1804      C1805   1.411       .  A
C1805      C1806   1.398       .  A
C1805      N1812   1.429       .  S
C1806      C1807   1.405       .  A
C1806      H1811   1.082       .  S
C1807      C1808   1.412       .  A
C1808      N1809   1.429       .  S
N1809      O1813   1.262   1_565  A
N1809      O1814   1.262       .  A
N1812      O1816   1.262       .  A
N1812      O1815   1.262   1_565  A
C1817      C1818   1.401   1_545  A
C1817      C1822   1.396       .  A
C1817      H1824   1.083       .  S
C1818      C1819   1.410       .  A
C1819      C1820   1.400       .  A
C1819      N1826   1.429       .  S
C1820      C1821   1.405       .  A
C1820      H1825   1.082       .  S
C1821      C1822   1.413   1_565  A
C1822      N1823   1.429       .  S
N1823      O1827   1.262       .  A
N1823      O1828   1.262       .  A
N1826      O1830   1.262       .  A
N1826      O1829   1.262       .  A
C1831      C1832   1.405       .  A
C1831      C1836   1.398       .  A
C1831      H1838   1.083       .  S
C1832      C1833   1.412       .  A
C1833      C1834   1.397   1_565  A
C1833      N1840   1.429   1_565  S
C1834      C1835   1.403   1_545  A
C1834      H1839   1.083       .  S
C1835      C1836   1.411       .  A
C1836      N1837   1.429       .  S
N1837      O1841   1.262       .  A
N1837      O1842   1.262   1_565  A
N1840      O1844   1.262       .  A
N1840      O1843   1.262   1_545  A
C1845      C1846   1.405   1_545  A
C1845      C1850   1.400       .  A
C1845      H1852   1.082       .  S
C1846      C1847   1.412       .  A
C1847      C1848   1.398       .  A
C1847      N1854   1.429       .  S
C1848      C1849   1.404   1_565  A
C1848      H1853   1.082       .  S
C1849      C1850   1.413       .  A
C1850      N1851   1.429       .  S
N1851      O1855   1.262       .  A
N1851      O1856   1.262       .  A
N1854      O1858   1.262   1_565  A
N1854      O1857   1.262       .  A
C1859      C1860   1.405       .  A
C1859      C1864   1.401       .  A
C1859      H1866   1.082       .  S
C1860      C1861   1.412       .  A
C1861      C1862   1.398       .  A
C1861      N1868   1.429       .  S
C1862      C1863   1.404       .  A
C1862      H1867   1.082       .  S
C1863      C1864   1.413       .  A
C1864      N1865   1.429       .  S
N1865      O1869   1.262       .  A
N1865      O1870   1.262       .  A
N1868      O1872   1.262       .  A
N1868      O1871   1.262       .  A
C1873      C1874   1.403       .  A
C1873      C1878   1.397       .  A
C1873      H1880   1.083       .  S
C1874      C1875   1.413       .  A
C1875      C1876   1.400       .  A
C1875      N1882   1.429       .  S
C1876      C1877   1.405       .  A
C1876      H1881   1.082       .  S
C1877      C1878   1.413       .  A
C1878      N1879   1.429       .  S
N1879      O1883   1.262       .  A
N1879      O1884   1.262       .  A
N1882      O1886   1.262       .  A
N1882      O1885   1.262       .  A
C1887      C1888   1.404       .  A
C1887      C1892   1.399       .  A
C1887      H1894   1.082       .  S
C1888      C1889   1.412       .  A
C1889      C1890   1.398       .  A
C1889      N1896   1.429       .  S
C1890      C1891   1.404       .  A
C1890      H1895   1.082       .  S
C1891      C1892   1.414       .  A
C1892      N1893   1.430       .  S
N1893      O1897   1.262       .  A
N1893      O1898   1.262       .  A
N1896      O1900   1.262       .  A
N1896      O1899   1.262       .  A
C1901      C1902   1.404       .  A
C1901      C1906   1.400       .  A
C1901      H1908   1.082       .  S
C1902      C1903   1.413       .  A
C1903      C1904   1.400       .  A
C1903      N1910   1.429       .  S
C1904      C1905   1.405       .  A
C1904      H1909   1.082       .  S
C1905      C1906   1.414       .  A
C1906      N1907   1.429       .  S
N1907      O1911   1.262       .  A
N1907      O1912   1.262       .  A
N1910      O1914   1.262       .  A
N1910      O1913   1.262       .  A
C1915      C1916   1.406       .  A
C1915      C1920   1.402       .  A
C1915      H1922   1.082       .  S
C1916      C1917   1.414       .  A
C1917      C1918   1.399       .  A
C1917      N1924   1.429       .  S
C1918      C1919   1.404       .  A
C1918      H1923   1.082       .  S
C1919      C1920   1.412       .  A
C1920      N1921   1.429       .  S
N1921      O1925   1.262       .  A
N1921      O1926   1.262       .  A
N1924      O1928   1.262       .  A
N1924      O1927   1.262       .  A
C1929      C1930   1.405       .  A
C1929      C1934   1.401       .  A
C1929      H1936   1.082       .  S
C1930      C1931   1.414       .  A
C1931      C1932   1.402       .  A
C1931      N1938   1.430       .  S
C1932      C1933   1.406       .  A
C1932      H1937   1.082       .  S
C1933      C1934   1.412       .  A
C1934      N1935   1.428       .  S
N1935      O1939   1.262       .  A
N1935      O1940   1.262       .  A
N1938      O1942   1.262       .  A
N1938      O1941   1.262       .  A
C1943      C1944   1.405       .  A
C1943      C1948   1.403       .  A
C1943      H1950   1.082       .  S
C1944      C1945   1.413       .  A
C1945      C1946   1.399       .  A
C1945      N1952   1.429       .  S
C1946      C1947   1.404       .  A
C1946      H1951   1.082       .  S
C1947      C1948   1.413       .  A
C1948      N1949   1.429       .  S
N1949      O1953   1.262       .  A
N1949      O1954   1.262       .  A
N1952      O1956   1.262       .  A
N1952      O1955   1.262       .  A
C1957      C1958   1.404       .  A
C1957      C1962   1.397       .  A
C1957      H1964   1.082       .  S
C1958      C1959   1.414       .  A
C1959      C1960   1.402       .  A
C1959      N1966   1.429       .  S
C1960      C1961   1.405       .  A
C1960      H1965   1.082       .  S
C1961      C1962   1.413       .  A
C1962      N1963   1.429       .  S
N1963      O1967   1.262       .  A
N1963      O1968   1.262       .  A
N1966      O1970   1.262       .  A
N1966      O1969   1.262       .  A
C1971      C1972   1.404       .  A
C1971      C1976   1.396       .  A
C1971      H1978   1.082       .  S
C1972      C1973   1.412       .  A
C1973      C1974   1.403       .  A
C1973      N1980   1.429       .  S
C1974      C1975   1.406       .  A
C1974      H1979   1.082       .  S
C1975      C1976   1.413       .  A
C1976      N1977   1.430       .  S
N1977      O1981   1.262       .  A
N1977      O1982   1.262       .  A
N1980      O1984   1.262       .  A
N1980      O1983   1.262       .  A
C1985      C1986   1.403       .  A
C1985      C1990   1.396       .  A
C1985      H1992   1.083       .  S
C1986      C1987   1.409       .  A
C1987      C1988   1.401       .  A
C1987      N1994   1.429       .  S
C1988      C1989   1.406       .  A
C1988      H1993   1.082       .  S
C1989      C1990   1.411       .  A
C1990      N1991   1.429       .  S
N1991      O1995   1.262       .  A
N1991      O1996   1.262       .  A
N1994      O1998   1.262       .  A
N1994      O1997   1.262       .  A
C1999      C2000   1.405       .  A
C1999      C2004   1.401       .  A
C1999      H2006   1.082       .  S
C2000      C2001   1.412       .  A
C2001      C2002   1.399       .  A
C2001      N2008   1.429       .  S
C2002      C2003   1.405       .  A
C2002      H2007   1.082       .  S
C2003      C2004   1.412       .  A
C2004      N2005   1.429       .  S
N2005      O2009   1.262       .  A
N2005      O2010   1.262       .  A
N2008      O2012   1.262       .  A
N2008      O2011   1.262       .  A
C2013      C2014   1.404       .  A
C2013      C2018   1.399       .  A
C2013      H2020   1.082       .  S
C2014      C2015   1.414       .  A
C2015      C2016   1.401       .  A
C2015      N2022   1.429       .  S
C2016      C2017   1.405       .  A
C2016      H2021   1.082       .  S
C2017      C2018   1.413       .  A
C2018      N2019   1.429       .  S
N2019      O2023   1.262       .  A
N2019      O2024   1.262       .  A
N2022      O2026   1.262       .  A
N2022      O2025   1.262       .  A
C2027      C2028   1.403       .  A
C2027      C2032   1.399       .  A
C2027      H2034   1.083       .  S
C2028      C2029   1.414       .  A
C2029      C2030   1.399       .  A
C2029      N2036   1.429       .  S
C2030      C2031   1.404       .  A
C2030      H2035   1.082       .  S
C2031      C2032   1.414       .  A
C2032      N2033   1.429       .  S
N2033      O2037   1.262       .  A
N2033      O2038   1.262       .  A
N2036      O2040   1.262       .  A
N2036      O2039   1.262       .  A
C2041      C2042   1.403       .  A
C2041      C2046   1.397       .  A
C2041      H2048   1.082       .  S
C2042      C2043   1.413       .  A
C2043      C2044   1.399       .  A
C2043      N2050   1.429       .  S
C2044      C2045   1.404       .  A
C2044      H2049   1.082       .  S
C2045      C2046   1.412       .  A
C2046      N2047   1.429       .  S
N2047      O2051   1.262       .  A
N2047      O2052   1.262       .  A
N2050      O2054   1.262       .  A
N2050      O2053   1.262       .  A
C2055      C2056   1.404       .  A
C2055      C2060   1.399       .  A
C2055      H2062   1.082       .  S
C2056      C2057   1.412       .  A
C2057      C2058   1.399       .  A
C2057      N2064   1.428       .  S
C2058      C2059   1.403       .  A
C2058      H2063   1.082       .  S
C2059      C2060   1.414       .  A
C2060      N2061   1.430       .  S
N2061      O2065   1.262       .  A
N2061      O2066   1.262       .  A
N2064      O2068   1.262       .  A
N2064      O2067   1.262       .  A
C2069      C2070   1.404       .  A
C2069      C2074   1.397       .  A
C2069      H2076   1.082       .  S
C2070      C2071   1.413       .  A
C2071      C2072   1.401       .  A
C2071      N2078   1.429       .  S
C2072      C2073   1.404       .  A
C2072      H2077   1.082       .  S
C2073      C2074   1.410       .  A
C2074      N2075   1.429       .  S
N2075      O2079   1.262       .  A
N2075      O2080   1.262       .  A
N2078      O2082   1.262       .  A
N2078      O2081   1.262       .  A
C2083      C2084   1.406       .  A
C2083      C2088   1.399       .  A
C2083      H2090   1.082       .  S
C2084      C2085   1.412       .  A
C2085      C2086   1.398       .  A
C2085      N2092   1.429       .  S
C2086      C2087   1.403       .  A
C2086      H2091   1.083       .  S
C2087      C2088   1.409       .  A
C2088      N2089   1.429       .  S
N2089      O2093   1.262       .  A
N2089      O2094   1.262       .  A
N2092      O2096   1.262       .  A
N2092      O2095   1.262       .  A
C2097      C2098   1.406       .  A
C2097      C2102   1.400       .  A
C2097      H2104   1.084       .  S
C2098      C2099   1.413       .  A
C2099      C2100   1.399       .  A
C2099      N2106   1.429       .  S
C2100      C2101   1.403       .  A
C2100      H2105   1.084       .  S
C2101      C2102   1.413       .  A
C2102      N2103   1.429       .  S
N2103      O2107   1.262       .  A
N2103      O2108   1.262       .  A
N2106      O2110   1.262       .  A
N2106      O2109   1.262       .  A
C2111      C2112   1.404       .  A
C2111      C2116   1.400       .  A
C2111      H2118   1.082       .  S
C2112      C2113   1.413       .  A
C2113      C2114   1.400       .  A
C2113      N2120   1.429       .  S
C2114      C2115   1.405       .  A
C2114      H2119   1.082       .  S
C2115      C2116   1.413       .  A
C2116      N2117   1.429       .  S
N2117      O2121   1.262       .  A
N2117      O2122   1.262       .  A
N2120      O2124   1.262       .  A
N2120      O2123   1.262       .  A
C2125      C2126   1.406       .  A
C2125      C2130   1.401       .  A
C2125      H2132   1.082       .  S
C2126      C2127   1.413       .  A
C2127      C2128   1.398       .  A
C2127      N2134   1.429       .  S
C2128      C2129   1.403       .  A
C2128      H2133   1.083       .  S
C2129      C2130   1.412       .  A
C2130      N2131   1.429       .  S
N2131      O2135   1.262       .  A
N2131      O2136   1.262       .  A
N2134      O2138   1.262       .  A
N2134      O2137   1.262       .  A
C2139      C2140   1.405       .  A
C2139      C2144   1.401       .  A
C2139      H2146   1.082       .  S
C2140      C2141   1.414       .  A
C2141      C2142   1.404       .  A
C2141      N2148   1.429       .  S
C2142      C2143   1.406       .  A
C2142      H2147   1.082       .  S
C2143      C2144   1.413       .  A
C2144      N2145   1.429       .  S
N2145      O2149   1.262       .  A
N2145      O2150   1.262       .  A
N2148      O2152   1.262       .  A
N2148      O2151   1.262       .  A
C2153      C2154   1.404       .  A
C2153      C2158   1.398       .  A
C2153      H2160   1.082       .  S
C2154      C2155   1.413       .  A
C2155      C2156   1.401       .  A
C2155      N2162   1.429       .  S
C2156      C2157   1.404       .  A
C2156      H2161   1.082       .  S
C2157      C2158   1.413       .  A
C2158      N2159   1.429       .  S
N2159      O2163   1.262       .  A
N2159      O2164   1.262       .  A
N2162      O2166   1.262       .  A
N2162      O2165   1.262       .  A
C2167      C2168   1.404       .  A
C2167      C2172   1.398       .  A
C2167      H2174   1.082       .  S
C2168      C2169   1.413       .  A
C2169      C2170   1.403       .  A
C2169      N2176   1.429       .  S
C2170      C2171   1.407       .  A
C2170      H2175   1.082       .  S
C2171      C2172   1.412       .  A
C2172      N2173   1.428       .  S
N2173      O2177   1.262       .  A
N2173      O2178   1.262       .  A
N2176      O2180   1.262       .  A
N2176      O2179   1.262       .  A
C2181      C2182   1.403       .  A
C2181      C2186   1.398       .  A
C2181      H2188   1.082       .  S
C2182      C2183   1.412       .  A
C2183      C2184   1.398       .  A
C2183      N2190   1.429       .  S
C2184      C2185   1.404       .  A
C2184      H2189   1.082       .  S
C2185      C2186   1.413       .  A
C2186      N2187   1.429       .  S
N2187      O2191   1.262       .  A
N2187      O2192   1.262       .  A
N2190      O2194   1.262       .  A
N2190      O2193   1.262       .  A
C2195      C2196   1.406       .  A
C2195      C2200   1.402       .  A
C2195      H2202   1.082       .  S
C2196      C2197   1.413       .  A
C2197      C2198   1.400       .  A
C2197      N2204   1.429       .  S
C2198      C2199   1.406       .  A
C2198      H2203   1.082       .  S
C2199      C2200   1.413       .  A
C2200      N2201   1.429       .  S
N2201      O2205   1.262       .  A
N2201      O2206   1.262       .  A
N2204      O2208   1.262       .  A
N2204      O2207   1.262       .  A
C2209      C2210   1.405       .  A
C2209      C2214   1.398       .  A
C2209      H2216   1.082       .  S
C2210      C2211   1.412       .  A
C2211      C2212   1.402       .  A
C2211      N2218   1.429       .  S
C2212      C2213   1.406       .  A
C2212      H2217   1.082       .  S
C2213      C2214   1.413       .  A
C2214      N2215   1.429       .  S
N2215      O2219   1.262       .  A
N2215      O2220   1.262       .  A
N2218      O2222   1.262       .  A
N2218      O2221   1.262       .  A
C2223      C2224   1.404       .  A
C2223      C2228   1.398       .  A
C2223      H2230   1.082       .  S
C2224      C2225   1.414       .  A
C2225      C2226   1.400       .  A
C2225      N2232   1.429       .  S
C2226      C2227   1.404       .  A
C2226      H2231   1.082       .  S
C2227      C2228   1.411       .  A
C2228      N2229   1.429       .  S
N2229      O2233   1.262       .  A
N2229      O2234   1.262       .  A
N2232      O2236   1.262       .  A
N2232      O2235   1.262       .  A
C2237      C2238   1.405       .  A
C2237      C2242   1.400       .  A
C2237      H2244   1.082       .  S
C2238      C2239   1.413       .  A
C2239      C2240   1.399       .  A
C2239      N2246   1.429       .  S
C2240      C2241   1.405       .  A
C2240      H2245   1.082       .  S
C2241      C2242   1.412       .  A
C2242      N2243   1.428       .  S
N2243      O2247   1.262       .  A
N2243      O2248   1.262       .  A
N2246      O2250   1.262       .  A
N2246      O2249   1.262       .  A
C2251      C2252   1.405       .  A
C2251      C2256   1.399       .  A
C2251      H2258   1.082       .  S
C2252      C2253   1.412       .  A
C2253      C2254   1.401       .  A
C2253      N2260   1.429       .  S
C2254      C2255   1.405       .  A
C2254      H2259   1.082       .  S
C2255      C2256   1.413       .  A
C2256      N2257   1.429       .  S
N2257      O2261   1.262       .  A
N2257      O2262   1.262       .  A
N2260      O2264   1.262       .  A
N2260      O2263   1.262       .  A
C2265      C2266   1.406       .  A
C2265      C2270   1.401       .  A
C2265      H2272   1.083       .  S
C2266      C2267   1.412       .  A
C2267      C2268   1.399       .  A
C2267      N2274   1.429       .  S
C2268      C2269   1.405       .  A
C2268      H2273   1.083       .  S
C2269      C2270   1.411       .  A
C2270      N2271   1.429       .  S
N2271      O2275   1.262       .  A
N2271      O2276   1.262       .  A
N2274      O2278   1.262       .  A
N2274      O2277   1.262       .  A
C2279      C2280   1.403       .  A
C2279      C2284   1.398       .  A
C2279      H2286   1.083       .  S
C2280      C2281   1.412       .  A
C2281      C2282   1.401       .  A
C2281      N2288   1.429       .  S
C2282      C2283   1.405       .  A
C2282      H2287   1.082       .  S
C2283      C2284   1.414       .  A
C2284      N2285   1.429       .  S
N2285      O2289   1.262       .  A
N2285      O2290   1.262       .  A
N2288      O2292   1.262       .  A
N2288      O2291   1.262       .  A
C2293      C2294   1.408       .  A
C2293      C2298   1.403       .  A
C2293      H2300   1.082       .  S
C2294      C2295   1.414       .  A
C2295      C2296   1.400       .  A
C2295      N2302   1.429       .  S
C2296      C2297   1.404       .  A
C2296      H2301   1.082       .  S
C2297      C2298   1.412       .  A
C2298      N2299   1.429       .  S
N2299      O2303   1.262       .  A
N2299      O2304   1.262       .  A
N2302      O2306   1.262       .  A
N2302      O2305   1.262       .  A
C2307      C2308   1.403       .  A
C2307      C2312   1.400       .  A
C2307      H2314   1.082       .  S
C2308      C2309   1.412       .  A
C2309      C2310   1.401       .  A
C2309      N2316   1.429       .  S
C2310      C2311   1.406       .  A
C2310      H2315   1.082       .  S
C2311      C2312   1.414       .  A
C2312      N2313   1.428       .  S
N2313      O2317   1.262       .  A
N2313      O2318   1.262       .  A
N2316      O2320   1.262       .  A
N2316      O2319   1.262       .  A
C2321      C2322   1.404       .  A
C2321      C2326   1.400       .  A
C2321      H2328   1.083       .  S
C2322      C2323   1.413       .  A
C2323      C2324   1.402       .  A
C2323      N2330   1.430       .  S
C2324      C2325   1.406       .  A
C2324      H2329   1.083       .  S
C2325      C2326   1.412       .  A
C2326      N2327   1.428       .  S
N2327      O2331   1.262       .  A
N2327      O2332   1.262       .  A
N2330      O2334   1.262       .  A
N2330      O2333   1.262       .  A
C2335      C2336   1.405       .  A
C2335      C2340   1.401       .  A
C2335      H2342   1.082       .  S
C2336      C2337   1.413       .  A
C2337      C2338   1.399       .  A
C2337      N2344   1.429       .  S
C2338      C2339   1.405       .  A
C2338      H2343   1.082       .  S
C2339      C2340   1.413       .  A
C2340      N2341   1.429       .  S
N2341      O2345   1.262       .  A
N2341      O2346   1.262       .  A
N2344      O2348   1.262       .  A
N2344      O2347   1.262       .  A
C2349      C2350   1.404       .  A
C2349      C2354   1.399       .  A
C2349      H2356   1.082       .  S
C2350      C2351   1.412       .  A
C2351      C2352   1.397       .  A
C2351      N2358   1.429       .  S
C2352      C2353   1.403       .  A
C2352      H2357   1.082       .  S
C2353      C2354   1.413       .  A
C2354      N2355   1.429       .  S
N2355      O2359   1.262       .  A
N2355      O2360   1.262       .  A
N2358      O2362   1.262       .  A
N2358      O2361   1.262       .  A
C2363      C2364   1.403       .  A
C2363      C2368   1.398       .  A
C2363      H2370   1.082       .  S
C2364      C2365   1.413       .  A
C2365      C2366   1.400       .  A
C2365      N2372   1.429       .  S
C2366      C2367   1.405       .  A
C2366      H2371   1.082       .  S
C2367      C2368   1.412       .  A
C2368      N2369   1.428       .  S
N2369      O2373   1.262       .  A
N2369      O2374   1.262       .  A
N2372      O2376   1.262       .  A
N2372      O2375   1.262       .  A
C2377      C2378   1.403       .  A
C2377      C2382   1.398       .  A
C2377      H2384   1.083       .  S
C2378      C2379   1.413       .  A
C2379      C2380   1.396       .  A
C2379      N2386   1.429       .  S
C2380      C2381   1.402       .  A
C2380      H2385   1.083       .  S
C2381      C2382   1.412       .  A
C2382      N2383   1.429       .  S
N2383      O2387   1.262       .  A
N2383      O2388   1.262       .  A
N2386      O2390   1.262       .  A
N2386      O2389   1.261       .  A
C2391      C2392   1.406       .  A
C2391      C2396   1.402       .  A
C2391      H2398   1.082       .  S
C2392      C2393   1.414       .  A
C2393      C2394   1.404       .  A
C2393      N2400   1.429       .  S
C2394      C2395   1.406       .  A
C2394      H2399   1.082       .  S
C2395      C2396   1.411       .  A
C2396      N2397   1.428       .  S
N2397      O2401   1.262       .  A
N2397      O2402   1.262       .  A
N2400      O2404   1.262       .  A
N2400      O2403   1.262       .  A
C2405      C2406   1.404       .  A
C2405      C2410   1.400       .  A
C2405      H2412   1.082       .  S
C2406      C2407   1.412       .  A
C2407      C2408   1.401       .  A
C2407      N2414   1.429       .  S
C2408      C2409   1.404       .  A
C2408      H2413   1.082       .  S
C2409      C2410   1.413       .  A
C2410      N2411   1.429       .  S
N2411      O2415   1.262       .  A
N2411      O2416   1.262       .  A
N2414      O2418   1.262       .  A
N2414      O2417   1.262       .  A
C2419      C2420   1.403       .  A
C2419      C2424   1.399       .  A
C2419      H2426   1.083       .  S
C2420      C2421   1.415       .  A
C2421      C2422   1.404       .  A
C2421      N2428   1.429       .  S
C2422      C2423   1.405       .  A
C2422      H2427   1.083       .  S
C2423      C2424   1.414       .  A
C2424      N2425   1.428       .  S
N2425      O2429   1.262       .  A
N2425      O2430   1.262       .  A
N2428      O2432   1.262       .  A
N2428      O2431   1.262       .  A
C2433      C2434   1.406       .  A
C2433      C2438   1.401       .  A
C2433      H2440   1.082       .  S
C2434      C2435   1.413       .  A
C2435      C2436   1.402       .  A
C2435      N2442   1.429       .  S
C2436      C2437   1.405       .  A
C2436      H2441   1.082       .  S
C2437      C2438   1.413       .  A
C2438      N2439   1.429       .  S
N2439      O2443   1.262       .  A
N2439      O2444   1.262       .  A
N2442      O2446   1.262       .  A
N2442      O2445   1.262       .  A
C2447      C2448   1.406       .  A
C2447      C2452   1.399       .  A
C2447      H2454   1.082       .  S
C2448      C2449   1.413       .  A
C2449      C2450   1.399       .  A
C2449      N2456   1.429       .  S
C2450      C2451   1.404       .  A
C2450      H2455   1.082       .  S
C2451      C2452   1.410       .  A
C2452      N2453   1.429       .  S
N2453      O2457   1.262       .  A
N2453      O2458   1.262       .  A
N2456      O2460   1.262       .  A
N2456      O2459   1.262       .  A
