geometry optimzed in LAMMPS
_audit_creation_date              2020-11-30 
_audit_creation_method            'lammps2cif' 
_symmetry_space_group_name_H-M    'P1' 
_symmetry_Int_Tables_number       1 
_symmetry_cell_setting            triclinic 
loop_ 
_symmetry_equiv_pos_as_xyz 
  x,y,z 
_cell_length_a                    36.12710126 
_cell_length_b                    36.081703987043866 
_cell_length_c                    31.194053688843873 
_cell_angle_alpha                 90.27851632918133 
_cell_angle_beta                  90.24114795439372 
_cell_angle_gamma                 89.69096850711367 
loop_ 
_atom_site_label 
_atom_site_type_symbol 
_atom_site_fract_x 
_atom_site_fract_y 
_atom_site_fract_z 
_atom_site_charge 
O1          O  0.99264462  0.39386216  0.42763060    -0.75900
O2          O  0.99887738  0.43939036  0.37756124    -0.54800
C3          C  0.49555896  0.40537283  0.38867522     0.77800
O4          O  0.39451045  0.49954237  0.07340433    -0.60500
O5          O  0.43927988  0.49341178  0.12486197    -0.53500
C6          C  0.40540724  0.49716925  0.11265398     0.69900
O7          O  0.39578017  0.99196449  0.42926438    -0.75000
O8          O  0.44106291  0.99656513  0.37866258    -0.55600
C9          C  0.40693025  0.49363274  0.39001824     0.75900
O10         O  0.50218399  0.39091493  0.07151577    -0.60200
O11         O  0.49649343  0.43523538  0.12362285    -0.53300
C12         C  0.49983525  0.40142794  0.11090484     0.72400
Zr13       Zr  0.99812135  0.41796152  0.50048337     2.54700
O14         O  0.44887878  0.37275218  0.50328704    -0.80800
O15         O  0.04679290  0.37125309  0.99600748    -0.94200
Zr16       Zr  0.42096933  0.99549986  0.50149229     2.64700
O17         O  0.37428496  0.44668368  0.50329849    -0.99100
O18         O  0.37554602  0.04596066  0.99724452    -0.81200
O19         O  0.45942304  0.45699662  0.45895571    -0.84500
O20         O  0.45833767  0.45526407  0.04275279    -2.19300
O21         O  0.10070905  0.49639056  0.07554182    -0.67900
O22         O  0.05541457  0.49186926  0.12615366    -0.52500
C23         C  0.08932415  0.99492952  0.11488086     0.70800
O24         O  0.00152882  0.09979639  0.43332121    -0.60800
O25         O  0.99761542  0.05528301  0.38117444    -0.52800
C26         C  0.00004629  0.08914150  0.39392065     0.72600
O27         O  0.49307508  0.09687574  0.07745781    -0.72200
O28         O  0.49727364  0.05102084  0.12753854    -0.50900
C29         C  0.99454505  0.08500060  0.11637669     0.74000
O30         O  0.10185613  0.99397224  0.43154652    -0.67600
O31         O  0.05688733  0.99842905  0.38006438    -0.56200
C32         C  0.09090466  0.99585848  0.39228305     0.72400
Zr33       Zr  0.07513384  0.49492791  0.00333795     2.77500
O34         O  0.12019524  0.04560686  0.50156232    -0.98300
O35         O  0.12130082  0.44556984  0.00463991    -0.79100
Zr36       Zr  0.49839754  0.07267991  0.00467053     2.70100
O37         O  0.04466540  0.12038057  0.01114854    -0.80400
O38         O  0.44826282  0.11877736  0.50020685    -0.99500
Zr39       Zr  0.99856201  0.99669176  0.41897229     2.21500
Zr40       Zr  0.49728953  0.49379503  0.08576822     2.11100
O41         O  0.03680701  0.03384017  0.04598007    -2.48200
O42         O  0.03728382  0.03543239  0.46173557    -0.80200
O43         O  0.03713775  0.45500075  0.04390936    -0.72400
O44         O  0.45881556  0.03536835  0.46072725    -2.33300
O45         O  0.03751492  0.45636898  0.45983876    -2.29500
O46         O  0.45877336  0.03417585  0.04509240    -0.74100
H47         H  0.44309660  0.43969328  0.06039863     0.77900
H48         H  0.44355722  0.05086770  0.44264163     0.78900
H49         H  0.05167969  0.04905240  0.06484376     0.81200
H50         H  0.05271625  0.44110544  0.44126768     0.78800
H51         H  0.38293667  0.06313956  0.51962527     0.41800
H52         H  0.43295765  0.11425489  0.02291091     0.40800
H53         H  0.06363432  0.11264537  0.48844660     0.40500
H54         H  0.11533622  0.06047737  0.02631025     0.38400
H55         H  0.10799964  0.42390715  0.01620755     0.41500
H56         H  0.05809394  0.37489714  0.46700485     0.36300
H57         H  0.42953651  0.38269510  0.48384819     0.42400
H58         H  0.37843852  0.43344217  0.02942768     0.38800
H59         H  0.14499769  0.03150163  0.01107913     0.43800
H60         H  0.03245675  0.34715890  0.49122176     0.42500
H61         H  0.35054714  0.45999850  0.50763192     0.42600
H62         H  0.46351033  0.14341750  0.01228308     0.43000
C63         C  0.49686987  0.27872378  0.22850180     0.01700
C64         C  0.49538454  0.28014426  0.27380809     0.01600
C65         C  0.49591107  0.24673589  0.29681475    -0.18900
C66         C  0.49666456  0.21198354  0.27625202     0.01700
C67         C  0.49543865  0.21058064  0.23093999     0.01600
C68         C  0.49620005  0.24397112  0.20795275    -0.18900
H69         H  0.49617945  0.24286504  0.17319985     0.03700
H70         H  0.49576071  0.24781626  0.33156912     0.03700
C71         C  0.28193882  0.49638139  0.22915642     0.01700
C72         C  0.28253395  0.49413801  0.27441440     0.01600
C73         C  0.24878556  0.49366440  0.29667886    -0.18900
C74         C  0.21439006  0.49442963  0.27546741     0.01700
C75         C  0.21380304  0.49633855  0.23019569     0.01600
C76         C  0.24755632  0.49706530  0.20793454    -0.18900
H77         H  0.24704316  0.49755377  0.17317663     0.03700
H78         H  0.24933451  0.49325212  0.33143490     0.03700
C79         C  0.12029502  0.47139666  0.18149430    -0.13900
C80         C  0.11827973  0.49697377  0.14779332     0.08200
C81         C  0.14585755  0.02396020  0.14419312    -0.13900
C82         C  0.17582819  0.02438670  0.17234098    -0.13900
C83         C  0.17916652  0.49776518  0.20440512     0.08200
C84         C  0.15091006  0.47141978  0.20930222    -0.13900
H85         H  0.09925126  0.45035925  0.18491073     0.12200
H86         H  0.14459346  0.04423878  0.11870960     0.12200
H87         H  0.19703694  0.04516618  0.16821709     0.12200
H88         H  0.15309705  0.45022929  0.23364983     0.12200
C89         C  0.14877398  0.46749689  0.36394932    -0.13900
C90         C  0.12007894  0.99394486  0.35945635     0.08200
C91         C  0.12094469  0.01875620  0.32492895    -0.13900
C92         C  0.15130663  0.01883995  0.29699179    -0.13900
C93         C  0.18036764  0.49306805  0.30220603     0.08200
C94         C  0.17834619  0.46703061  0.33543965    -0.13900
H95         H  0.14852672  0.44775577  0.39000772     0.12200
H96         H  0.09906594  0.03908381  0.32079068     0.12200
H97         H  0.15243094  0.03949665  0.27198745     0.12200
H98         H  0.20020648  0.44673314  0.33994391     0.12200
C99         C  0.37551572  0.47340305  0.17934511    -0.13900
C100        C  0.37635831  0.49894076  0.14554828     0.08200
C101        C  0.34746980  0.52473944  0.14119185    -0.13900
C102        C  0.31784722  0.52469517  0.16964076    -0.13900
C103        C  0.31591928  0.49821966  0.20244192     0.08200
C104        C  0.34516194  0.47261192  0.20717766    -0.13900
H105        H  0.39739261  0.45298493  0.18289159     0.12200
H106        H  0.34766800  0.54475431  0.11541003     0.12200
H107        H  0.29587836  0.54492209  0.16542659     0.12200
H108        H  0.34406829  0.45140929  0.23156450     0.12200
C109        C  0.34592190  0.01767817  0.29561978    -0.13900
C110        C  0.31714365  0.49208748  0.30021277     0.08200
C111        C  0.32025576  0.46500888  0.33223561    -0.13900
C112        C  0.35016373  0.46504050  0.36050104    -0.13900
C113        C  0.37814104  0.49154165  0.35669435     0.08200
C114        C  0.37652823  0.01713251  0.32341883    -0.13900
H115        H  0.34405444  0.03901538  0.27141735     0.12200
H116        H  0.29885475  0.44439564  0.33615805     0.12200
H117        H  0.35118783  0.44466588  0.38589187     0.12200
H118        H  0.39785376  0.03790106  0.32011246     0.12200
C119        C  0.01863957  0.11577812  0.18303685    -0.13900
C120        C  0.49179007  0.11386148  0.15001495     0.08200
C121        C  0.46551964  0.14232605  0.14572140    -0.13900
C122        C  0.46583216  0.17259822  0.17358464    -0.13900
C123        C  0.49293266  0.17553190  0.20582137     0.08200
C124        C  0.01940250  0.14671847  0.21046178    -0.13900
H125        H  0.03981918  0.09458358  0.18610246     0.12200
H126        H  0.44522829  0.14152309  0.12005576     0.12200
H127        H  0.44554201  0.19447039  0.16909228     0.12200
H128        H  0.04117874  0.14888964  0.23427721     0.12200
C129        C  0.47496816  0.11910057  0.32750243    -0.13900
C130        C  0.00103862  0.11836639  0.36133848     0.08200
C131        C  0.02597947  0.14771853  0.36600955    -0.13900
C132        C  0.02547864  0.17702392  0.33709620    -0.13900
C133        C  0.49890731  0.17846094  0.30365158     0.08200
C134        C  0.47351696  0.14925184  0.29940315    -0.13900
H135        H  0.45478402  0.09716168  0.32424880     0.12200
H136        H  0.04575441  0.14803208  0.39222201     0.12200
H137        H  0.04509392  0.19935466  0.34139919     0.12200
H138        H  0.45209227  0.15016040  0.27505789     0.12200
C139        C  0.47547506  0.37208286  0.17744296    -0.13900
C140        C  0.50083646  0.37210261  0.14347142     0.08200
C141        C  0.02560409  0.34203718  0.13909258    -0.13900
C142        C  0.02509682  0.31273793  0.16802743    -0.13900
C143        C  0.49911219  0.31220852  0.20106116     0.08200
C144        C  0.47415541  0.34200336  0.20559393    -0.13900
H145        H  0.45565788  0.39451123  0.18101269     0.12200
H146        H  0.04533708  0.34144537  0.11303274     0.12200
H147        H  0.04465341  0.29015128  0.16385548     0.12200
H148        H  0.45310821  0.34162219  0.23017707     0.12200
C149        C  0.01926382  0.37388294  0.32266943    -0.13900
C150        C  0.49303109  0.37676087  0.35499510     0.08200
C151        C  0.46606095  0.34918570  0.35854503    -0.13900
C152        C  0.46592454  0.31899498  0.33053913    -0.13900
C153        C  0.49325508  0.31524742  0.29890623     0.08200
C154        C  0.01991833  0.34293557  0.29522363    -0.13900
H155        H  0.04073323  0.39458239  0.32010017     0.12200
H156        H  0.44553065  0.35062046  0.38373374     0.12200
H157        H  0.44511692  0.29778601  0.33448144     0.12200
H158        H  0.04188091  0.34026502  0.27188365     0.12200
O159        O  0.99243794  0.39409600  0.92744367    -0.75900
O160        O  0.99869214  0.43977920  0.87756542    -0.54800
C161        C  0.49512440  0.40572052  0.88856508     0.77800
O162        O  0.39447980  0.50004216  0.57301896    -0.60500
O163        O  0.43924913  0.49360546  0.62442069    -0.53500
C164        C  0.40536293  0.49756846  0.61225290     0.69900
O165        O  0.39595303  0.99181576  0.92898886    -0.75000
O166        O  0.44121467  0.99705697  0.87846916    -0.55600
C167        C  0.40679865  0.49395057  0.89009242     0.75900
O168        O  0.50322043  0.39074462  0.57143100    -0.60200
O169        O  0.49670221  0.43514794  0.62333538    -0.53300
C170        C  0.50050890  0.40132986  0.61078139     0.72400
Zr171      Zr  0.99803361  0.41790253  0.00042893     2.54700
O172        O  0.45146998  0.37013666  0.00227875    -0.80800
O173        O  0.04618005  0.37062597  0.49506703    -0.94200
Zr174      Zr  0.42087512  0.99595378  0.00153287     2.64700
O175        O  0.37354510  0.44746706  0.00278083    -0.99100
O176        O  0.37503040  0.04498894  0.49756121    -0.81200
O177        O  0.45925537  0.45714004  0.95919697    -0.84500
O178        O  0.45853076  0.45521300  0.54276263    -2.19300
O179        O  0.10045487  0.49684116  0.57548168    -0.67900
O180        O  0.05514740  0.49189875  0.62602132    -0.52500
C181        C  0.08907310  0.99512159  0.61469665     0.70800
O182        O  0.00267905  0.09971465  0.93354700    -0.60800
O183        O  0.99685265  0.05538971  0.88145780    -0.52800
C184        C  0.00022332  0.08916979  0.89415288     0.72600
O185        O  0.49266935  0.09704865  0.57684858    -0.72200
O186        O  0.49755648  0.05125858  0.62694092    -0.50900
C187        C  0.99363606  0.08538885  0.61592176     0.74000
O188        O  0.10192880  0.99399130  0.93194123    -0.67600
O189        O  0.05697989  0.99913398  0.88053964    -0.56200
C190        C  0.09097828  0.99630895  0.89271841     0.72400
Zr191      Zr  0.07524371  0.49503796  0.50308223     2.77500
O192        O  0.12175587  0.04391215  0.00202611    -0.98300
O193        O  0.12216274  0.44636837  0.50507290    -0.79100
Zr194      Zr  0.49759661  0.07265978  0.50419836     2.70100
O195        O  0.04557631  0.11915889  0.51109264    -0.80400
O196        O  0.45123240  0.12099538  0.00074449    -0.99500
Zr197      Zr  0.99865554  0.99686366  0.91928771     2.21500
Zr198      Zr  0.49751435  0.49380060  0.58556023     2.11100
O199        O  0.03662049  0.03397106  0.54567520    -2.48200
O200        O  0.03757776  0.03543263  0.96211409    -0.80200
O201        O  0.03729755  0.45510006  0.54383688    -0.72400
O202        O  0.45912559  0.03576419  0.96115946    -2.33300
O203        O  0.03743965  0.45639595  0.95986003    -2.29500
O204        O  0.45854011  0.03394769  0.54497071    -0.74100
H205        H  0.44333172  0.43968520  0.56050532     0.77900
H206        H  0.44397220  0.05142720  0.94314455     0.78900
H207        H  0.05142531  0.04923181  0.56456092     0.81200
H208        H  0.05266469  0.44122648  0.94120790     0.78800
H209        H  0.38113957  0.06205136  0.02221808     0.41800
H210        H  0.43271597  0.11408060  0.52565114     0.40800
H211        H  0.06482904  0.11194987  0.99197496     0.40500
H212        H  0.11457854  0.06090391  0.52718117     0.38400
H213        H  0.10892032  0.42432412  0.51574372     0.41500
H214        H  0.05804919  0.37471364  0.96743617     0.36300
H215        H  0.42931836  0.38180870  0.98917081     0.42400
H216        H  0.37874612  0.43355638  0.53064856     0.38800
H217        H  0.14417117  0.03351199  0.50831889     0.43800
H218        H  0.03341435  0.34744442  0.99367811     0.42500
H219        H  0.35007469  0.46091112  0.00834526     0.42600
H220        H  0.46065515  0.14259350  0.50660966     0.43000
C221        C  0.49720329  0.27883473  0.72879690     0.01700
C222        C  0.49555375  0.28014139  0.77410369     0.01600
C223        C  0.49585203  0.24666226  0.79697503    -0.18900
C224        C  0.49671885  0.21194429  0.77628475     0.01700
C225        C  0.49553947  0.21064663  0.73094938     0.01600
C226        C  0.49638668  0.24412266  0.70811810    -0.18900
H227        H  0.49639797  0.24311298  0.67336334     0.03700
H228        H  0.49557474  0.24765982  0.83173183     0.03700
C229        C  0.28174549  0.49727744  0.72893855     0.01700
C230        C  0.28246623  0.49535367  0.77422413     0.01600
C231        C  0.24877346  0.49537532  0.79662959    -0.18900
C232        C  0.21427556  0.49607577  0.77560213     0.01700
C233        C  0.21352222  0.49756348  0.73028865     0.01600
C234        C  0.24725283  0.49804249  0.70787886    -0.18900
H235        H  0.24663815  0.49833388  0.67312107     0.03700
H236        H  0.24946562  0.49529452  0.83138779     0.03700
C237        C  0.11991782  0.47221770  0.68180833    -0.13900
C238        C  0.11795023  0.49749454  0.64778660     0.08200
C239        C  0.14590289  0.02404401  0.64325768    -0.13900
C240        C  0.17576340  0.02492299  0.67153776    -0.13900
C241        C  0.17878079  0.49881287  0.70457024     0.08200
C242        C  0.15049161  0.47251594  0.70972428    -0.13900
H243        H  0.09887347  0.45120305  0.68541667     0.12200
H244        H  0.14488939  0.04374459  0.61716079     0.12200
H245        H  0.19710294  0.04546775  0.66683516     0.12200
H246        H  0.15263862  0.45154990  0.73433405     0.12200
C247        C  0.14918799  0.46973017  0.86486012    -0.13900
C248        C  0.12011112  0.99470317  0.85984355     0.08200
C249        C  0.12078392  0.01972992  0.82551847    -0.13900
C250        C  0.15108465  0.02014378  0.79750296    -0.13900
C251        C  0.18037855  0.49490677  0.80262053     0.08200
C252        C  0.17870788  0.46928009  0.83631321    -0.13900
H253        H  0.14917743  0.45020018  0.89113827     0.12200
H254        H  0.09878928  0.03996576  0.82159884     0.12200
H255        H  0.15203892  0.04091860  0.77261797     0.12200
H256        H  0.20074042  0.44921380  0.84105951     0.12200
C257        C  0.37529476  0.47387391  0.67897232    -0.13900
C258        C  0.37625016  0.49939970  0.64515410     0.08200
C259        C  0.34734866  0.52519063  0.64072755    -0.13900
C260        C  0.31768879  0.52521920  0.66915881    -0.13900
C261        C  0.31570017  0.49883927  0.70205793     0.08200
C262        C  0.34491333  0.47318047  0.70682047    -0.13900
H263        H  0.39713080  0.45341712  0.68256122     0.12200
H264        H  0.34757364  0.54517347  0.61491492     0.12200
H265        H  0.29576067  0.54548083  0.66489506     0.12200
H266        H  0.34379780  0.45203801  0.73127569     0.12200
C267        C  0.34617416  0.01858465  0.79544564    -0.13900
C268        C  0.31712342  0.49299230  0.79996603     0.08200
C269        C  0.31994018  0.46599133  0.83211936    -0.13900
C270        C  0.34980471  0.46581212  0.86046220    -0.13900
C271        C  0.37804801  0.49202420  0.85664654     0.08200
C272        C  0.37690274  0.01755898  0.82307827    -0.13900
H273        H  0.34443385  0.04005156  0.77138133     0.12200
H274        H  0.29831607  0.44562386  0.83611174     0.12200
H275        H  0.35057197  0.44551440  0.88594279     0.12200
H276        H  0.39840011  0.03815647  0.81982314     0.12200
C277        C  0.01723100  0.11542489  0.68338713    -0.13900
C278        C  0.49206095  0.11419144  0.64936976     0.08200
C279        C  0.46578993  0.14268383  0.64522393    -0.13900
C280        C  0.46605349  0.17284424  0.67327914    -0.13900
C281        C  0.49309749  0.17566963  0.70560745     0.08200
C282        C  0.01818297  0.14622139  0.71106985    -0.13900
H283        H  0.03790378  0.09377311  0.68679777     0.12200
H284        H  0.44546362  0.14194915  0.61959151     0.12200
H285        H  0.44572760  0.19470128  0.66890485     0.12200
H286        H  0.03965743  0.14782651  0.73530859     0.12200
C287        C  0.47542994  0.11924296  0.82819022    -0.13900
C288        C  0.00107102  0.11842461  0.86152942     0.08200
C289        C  0.02670922  0.14725843  0.86539765    -0.13900
C290        C  0.02601456  0.17670596  0.83662999    -0.13900
C291        C  0.49927474  0.17840678  0.80363875     0.08200
C292        C  0.47388180  0.14917639  0.79977662    -0.13900
H293        H  0.45520107  0.09731078  0.82528229     0.12200
H294        H  0.04714789  0.14708820  0.89091871     0.12200
H295        H  0.04611055  0.19867554  0.84035651     0.12200
H296        H  0.45234457  0.14994263  0.77555695     0.12200
C297        C  0.47643395  0.37239514  0.67777351    -0.13900
C298        C  0.50154702  0.37210263  0.64353288     0.08200
C299        C  0.02515502  0.34250283  0.63941043    -0.13900
C300        C  0.02458420  0.31310646  0.66818701    -0.13900
C301        C  0.49972411  0.31238495  0.70144721     0.08200
C302        C  0.47505835  0.34241656  0.70607956    -0.13900
H303        H  0.45679472  0.39497130  0.68141621     0.12200
H304        H  0.04503809  0.34204800  0.61350489     0.12200
H305        H  0.04425611  0.29061768  0.66406279     0.12200
H306        H  0.45411483  0.34226862  0.73078567     0.12200
C307        C  0.01824761  0.37477584  0.82183004    -0.13900
C308        C  0.49271166  0.37706567  0.85491977     0.08200
C309        C  0.46556874  0.34962663  0.85816955    -0.13900
C310        C  0.46572073  0.31924074  0.83041208    -0.13900
C311        C  0.49345436  0.31521497  0.79929020     0.08200
C312        C  0.01901063  0.34376324  0.79448334    -0.13900
H313        H  0.03938763  0.39576877  0.81884078     0.12200
H314        H  0.44470063  0.35130330  0.88296553     0.12200
H315        H  0.44475699  0.29815041  0.83409029     0.12200
H316        H  0.04072627  0.34136984  0.77080110     0.12200
O317        O  0.99438956  0.89353046  0.42761123    -0.75900
O318        O  0.99889282  0.93928860  0.37755475    -0.54800
C319        C  0.49647275  0.90517159  0.38876697     0.77800
O320        O  0.39470208  0.99930010  0.07337299    -0.60500
O321        O  0.43944251  0.99343869  0.12490315    -0.53500
C322        C  0.40556083  0.99698361  0.11264157     0.69900
O323        O  0.39565656  0.49160860  0.42901415    -0.75000
O324        O  0.44088532  0.49712160  0.37848223    -0.55600
C325        C  0.40706185  0.99354111  0.39025526     0.75900
O326        O  0.50121777  0.89090685  0.07169699    -0.60200
O327        O  0.49647604  0.93529242  0.12390074    -0.53300
C328        C  0.49925878  0.90145081  0.11112193     0.72400
Zr329      Zr  0.99842539  0.91802872  0.50037548     2.54700
O330        O  0.45037106  0.87121527  0.50319377    -0.80800
O331        O  0.04735463  0.87142226  0.99536794    -0.94200
Zr332      Zr  0.42069576  0.49539671  0.50138527     2.64700
O333        O  0.37392931  0.94744901  0.50280487    -0.99100
O334        O  0.37526390  0.54574397  0.99719290    -0.81200
O335        O  0.45966451  0.95689530  0.45916679    -0.84500
O336        O  0.45841481  0.95546491  0.04287274    -2.19300
O337        O  0.10061708  0.99685268  0.07588574    -0.67900
O338        O  0.05529986  0.99202480  0.12640355    -0.52500
C339        C  0.08944129  0.49461027  0.11455141     0.70800
O340        O  0.00206860  0.59958288  0.43310264    -0.60800
O341        O  0.99759555  0.55512341  0.38096259    -0.52800
C342        C  0.00032380  0.58895485  0.39368598     0.72600
O343        O  0.49179436  0.59709300  0.07708907    -0.72200
O344        O  0.49677534  0.55118898  0.12704473    -0.50900
C345        C  0.99392681  0.58507753  0.11621501     0.74000
O346        O  0.10185771  0.49310039  0.43148417    -0.67600
O347        O  0.05688286  0.49829460  0.38011260    -0.56200
C348        C  0.09088492  0.49527934  0.39224435     0.72400
Zr349      Zr  0.07535003  0.99521947  0.00347980     2.77500
O350        O  0.12087942  0.54443438  0.50151442    -0.98300
O351        O  0.12189259  0.94624381  0.00604647    -0.79100
Zr352      Zr  0.49761009  0.57269533  0.00448560     2.70100
O353        O  0.04674489  0.61815172  0.01253852    -0.80400
O354        O  0.44873149  0.61945900  0.50055086    -0.99500
Zr355      Zr  0.99854986  0.49669678  0.41901087     2.21500
Zr356      Zr  0.49754407  0.99379546  0.08595365     2.11100
O357        O  0.03677349  0.53360840  0.04597480    -2.48200
O358        O  0.03748502  0.53525271  0.46172702    -0.80200
O359        O  0.03739563  0.95510597  0.04387548    -0.72400
O360        O  0.45852026  0.53545732  0.46081796    -2.33300
O361        O  0.03775539  0.95661952  0.45985467    -2.29500
O362        O  0.45833186  0.53395212  0.04499813    -0.74100
H363        H  0.44305812  0.93999768  0.06050504     0.77900
H364        H  0.44322521  0.55097942  0.44279692     0.78900
H365        H  0.05169299  0.54877341  0.06483980     0.81200
H366        H  0.05306388  0.94142928  0.44131817     0.78800
H367        H  0.38405601  0.56428289  0.51656614     0.41800
H368        H  0.43202840  0.61385686  0.02309203     0.40800
H369        H  0.06577463  0.61001494  0.49093069     0.40500
H370        H  0.11333868  0.56155247  0.02468311     0.38400
H371        H  0.11328315  0.92757119  0.98494321     0.41500
H372        H  0.05923458  0.87500647  0.46895328     0.36300
H373        H  0.43005467  0.88152873  0.48541486     0.42400
H374        H  0.37829798  0.93380272  0.02856691     0.38800
H375        H  0.14400555  0.53226235  0.01346035     0.43800
H376        H  0.03228268  0.84701122  0.49077728     0.42500
H377        H  0.35061787  0.96088058  0.50923024     0.42600
H378        H  0.46160752  0.64299329  0.00922171     0.43000
C379        C  0.49702967  0.77860924  0.22847318     0.01700
C380        C  0.49568833  0.77999286  0.27377026     0.01600
C381        C  0.49591686  0.74658895  0.29671317    -0.18900
C382        C  0.49642603  0.71186677  0.27612460     0.01700
C383        C  0.49523863  0.71047608  0.23082149     0.01600
C384        C  0.49619456  0.74387570  0.20786390    -0.18900
H385        H  0.49610580  0.74279261  0.17311046     0.03700
H386        H  0.49574772  0.74765286  0.33146894     0.03700
C387        C  0.28206508  0.99589130  0.22919046     0.01700
C388        C  0.28268012  0.99376175  0.27446922     0.01600
C389        C  0.24892338  0.99348507  0.29673814    -0.18900
C390        C  0.21450872  0.99427789  0.27555997     0.01700
C391        C  0.21390194  0.99597332  0.23027529     0.01600
C392        C  0.24765603  0.99655793  0.20798328    -0.18900
H393        H  0.24711892  0.99700805  0.17322381     0.03700
H394        H  0.24948244  0.99326958  0.33149548     0.03700
C395        C  0.12022811  0.97140726  0.18166916    -0.13900
C396        C  0.11814399  0.99719540  0.14817835     0.08200
C397        C  0.14596496  0.52375108  0.14368264    -0.13900
C398        C  0.17581363  0.52443485  0.17198472    -0.13900
C399        C  0.17923230  0.99752710  0.20453915     0.08200
C400        C  0.15092544  0.97122447  0.20937227    -0.13900
H401        H  0.09917547  0.95036475  0.18498348     0.12200
H402        H  0.14474234  0.54387597  0.11803318     0.12200
H403        H  0.19698235  0.54524568  0.16779286     0.12200
H404        H  0.15313452  0.94992465  0.23359197     0.12200
C405        C  0.14893142  0.96818257  0.36442786    -0.13900
C406        C  0.11997434  0.49337235  0.35930257     0.08200
C407        C  0.12082208  0.51840571  0.32498952    -0.13900
C408        C  0.15116974  0.51870090  0.29705572    -0.13900
C409        C  0.18049658  0.99321735  0.30237195     0.08200
C410        C  0.17850181  0.96749855  0.33593764    -0.13900
H411        H  0.14869265  0.94864323  0.39069082     0.12200
H412        H  0.09896109  0.53878351  0.32106528     0.12200
H413        H  0.15229497  0.53954281  0.27225603     0.12200
H414        H  0.20035797  0.94723946  0.34068223     0.12200
C415        C  0.37561384  0.97297120  0.17920669    -0.13900
C416        C  0.37647095  0.99861589  0.14551375     0.08200
C417        C  0.34761516  0.02447044  0.14130788    -0.13900
C418        C  0.31799281  0.02435274  0.16977011    -0.13900
C419        C  0.31604045  0.99776467  0.20244997     0.08200
C420        C  0.34527533  0.97213145  0.20707483    -0.13900
H421        H  0.39748162  0.95253139  0.18266142     0.12200
H422        H  0.34784132  0.04458950  0.11563555     0.12200
H423        H  0.29604315  0.04461738  0.16566600     0.12200
H424        H  0.34418769  0.95088539  0.23141256     0.12200
C425        C  0.34560140  0.51825215  0.29576452    -0.13900
C426        C  0.31729013  0.99173219  0.30033113     0.08200
C427        C  0.32017786  0.96499904  0.33277980    -0.13900
C428        C  0.35002279  0.96516353  0.36114211    -0.13900
C429        C  0.37821004  0.99140370  0.35699255     0.08200
C430        C  0.37625421  0.51760859  0.32347918    -0.13900
H431        H  0.34355512  0.53980748  0.27183540     0.12200
H432        H  0.29864814  0.94455992  0.33695790     0.12200
H433        H  0.35086213  0.94506317  0.38683253     0.12200
H434        H  0.39743443  0.53855693  0.32042517     0.12200
C435        C  0.01790646  0.61540792  0.18315150    -0.13900
C436        C  0.49090434  0.61390892  0.14973994     0.08200
C437        C  0.46466828  0.64243559  0.14569849    -0.13900
C438        C  0.46518878  0.67264853  0.17365314    -0.13900
C439        C  0.49246298  0.67545302  0.20570596     0.08200
C440        C  0.01897914  0.64630729  0.21059683    -0.13900
H441        H  0.03875246  0.59390282  0.18637853     0.12200
H442        H  0.44427278  0.64175060  0.12014072     0.12200
H443        H  0.44495295  0.69459853  0.16934552     0.12200
H444        H  0.04065445  0.64813516  0.23457486     0.12200
C445        C  0.47461405  0.61907240  0.32740083    -0.13900
C446        C  0.00125935  0.61818244  0.36108074     0.08200
C447        C  0.02618672  0.64753746  0.36573120    -0.13900
C448        C  0.02555919  0.67691806  0.33693959    -0.13900
C449        C  0.49854864  0.67840088  0.30355653     0.08200
C450        C  0.47323043  0.64914422  0.29920641    -0.13900
H451        H  0.45454070  0.59704236  0.32404467     0.12200
H452        H  0.04605728  0.64780053  0.39184494     0.12200
H453        H  0.04521294  0.69921719  0.34121414     0.12200
H454        H  0.45192726  0.64994318  0.27471427     0.12200
C455        C  0.47519597  0.87203372  0.17784813    -0.13900
C456        C  0.50032706  0.87209941  0.14364302     0.08200
C457        C  0.02634558  0.84227727  0.13895120    -0.13900
C458        C  0.02603089  0.81289288  0.16778239    -0.13900
C459        C  0.49907452  0.81214226  0.20112810     0.08200
C460        C  0.47411043  0.84190691  0.20595935    -0.13900
H461        H  0.45539678  0.89445062  0.18164524     0.12200
H462        H  0.04602214  0.84184179  0.11283164     0.12200
H463        H  0.04566583  0.79039510  0.16347535     0.12200
H464        H  0.45323349  0.84145778  0.23073699     0.12200
C465        C  0.02038794  0.87376595  0.32258935    -0.13900
C466        C  0.49403999  0.87647174  0.35516408     0.08200
C467        C  0.46700768  0.84896958  0.35876950    -0.13900
C468        C  0.46667394  0.81884366  0.33071250    -0.13900
C469        C  0.49388253  0.81504455  0.29896331     0.08200
C470        C  0.02100154  0.84288152  0.29503566    -0.13900
H471        H  0.04183681  0.89448867  0.32005065     0.12200
H472        H  0.44651185  0.85045118  0.38399124     0.12200
H473        H  0.44576557  0.79773601  0.33466986     0.12200
H474        H  0.04293856  0.84025399  0.27165566     0.12200
O475        O  0.99321288  0.89389048  0.92743185    -0.75900
O476        O  0.99898554  0.93964776  0.87757659    -0.54800
C477        C  0.49470677  0.90547402  0.88860272     0.77800
O478        O  0.39470998  0.99981903  0.57315861    -0.60500
O479        O  0.43936284  0.99340957  0.62466966    -0.53500
C480        C  0.40550349  0.99732276  0.61242401     0.69900
O481        O  0.39545880  0.49209787  0.92909296    -0.75000
O482        O  0.44080311  0.49714991  0.87862556    -0.55600
C483        C  0.40723778  0.99366788  0.88995898     0.75900
O484        O  0.50279412  0.89075074  0.57166884    -0.60200
O485        O  0.49659502  0.93518041  0.62358594    -0.53300
C486        C  0.50021216  0.90135649  0.61100453     0.72400
Zr487      Zr  0.99840827  0.91787708  0.00036015     2.54700
O488        O  0.45013085  0.87098318  0.00182275    -0.80800
O489        O  0.04609512  0.87021140  0.49614624    -0.94200
Zr490      Zr  0.42053966  0.49563628  0.00154120     2.64700
O491        O  0.37317585  0.94848585  0.00245704    -0.99100
O492        O  0.37450925  0.54463966  0.49727336    -0.81200
O493        O  0.45934120  0.95728680  0.95917166    -0.84500
O494        O  0.45864914  0.95512080  0.54278343    -2.19300
O495        O  0.10036028  0.99679193  0.57566598    -0.67900
O496        O  0.05504025  0.99242763  0.62626287    -0.52500
C497        C  0.08915900  0.49491823  0.61448101     0.70800
O498        O  0.00282855  0.60002640  0.93376462    -0.60800
O499        O  0.99715430  0.55567077  0.88167704    -0.52800
C500        C  0.00049421  0.58946508  0.89436331     0.72600
O501        O  0.49244108  0.59701990  0.57681243    -0.72200
O502        O  0.49721690  0.55117858  0.62684761    -0.50900
C503        C  0.99383973  0.58517390  0.61593395     0.74000
O504        O  0.10165925  0.49406974  0.93183304    -0.67600
O505        O  0.05679778  0.49950295  0.88038435    -0.56200
C506        C  0.09078771  0.49663459  0.89261059     0.72400
Zr507      Zr  0.07529246  0.99551637  0.50313208     2.77500
O508        O  0.12117906  0.54393440  0.00200401    -0.98300
O509        O  0.12282009  0.94743499  0.50501514    -0.79100
Zr510      Zr  0.49749896  0.57270167  0.50416079     2.70100
O511        O  0.04627728  0.61865151  0.51089186    -0.80400
O512        O  0.44939930  0.61985314  0.99969653    -0.99500
Zr513      Zr  0.99849261  0.49694277  0.91923718     2.21500
Zr514      Zr  0.49753750  0.99375594  0.58571146     2.11100
O515        O  0.03664429  0.53364187  0.54559251    -2.48200
O516        O  0.03750984  0.53526929  0.96204639    -0.80200
O517        O  0.03741661  0.95541827  0.54369277    -0.72400
O518        O  0.45858941  0.53554810  0.96111409    -2.33300
O519        O  0.03776373  0.95653016  0.95996859    -2.29500
O520        O  0.45845707  0.53382498  0.54472120    -0.74100
H521        H  0.44337178  0.93961418  0.56046114     0.77900
H522        H  0.44335823  0.55114436  0.94310853     0.78900
H523        H  0.05149986  0.54886206  0.56446608     0.81200
H524        H  0.05299448  0.94138790  0.94130124     0.78800
H525        H  0.38143280  0.56231643  0.02155519     0.41800
H526        H  0.43398837  0.61584935  0.52687301     0.40800
H527        H  0.06540553  0.61082256  0.99089616     0.40500
H528        H  0.11431528  0.56081827  0.52590692     0.38400
H529        H  0.10964769  0.92498845  0.51464597     0.41500
H530        H  0.05732457  0.87382940  0.96600270     0.36300
H531        H  0.42937470  0.88193959  0.98527517     0.42400
H532        H  0.37926735  0.93300006  0.52903187     0.38800
H533        H  0.14434498  0.53235721  0.51038943     0.43800
H534        H  0.03413013  0.84745631  0.99506854     0.42500
H535        H  0.35001694  0.96216268  0.00894216     0.42600
H536        H  0.46167927  0.64325362  0.50531615     0.43000
C537        C  0.49693197  0.77865442  0.72854168     0.01700
C538        C  0.49503892  0.78000068  0.77383415     0.01600
C539        C  0.49526808  0.74654639  0.79673069    -0.18900
C540        C  0.49620720  0.71182020  0.77608550     0.01700
C541        C  0.49529080  0.71047744  0.73075891     0.01600
C542        C  0.49630326  0.74392500  0.70788343    -0.18900
H543        H  0.49648464  0.74287795  0.67312981     0.03700
H544        H  0.49482540  0.74756923  0.83148149     0.03700
C545        C  0.28187654  0.99724807  0.72913096     0.01700
C546        C  0.28257832  0.99537309  0.77442875     0.01600
C547        C  0.24884602  0.99535623  0.79679410    -0.18900
C548        C  0.21436143  0.99601453  0.77570003     0.01700
C549        C  0.21364012  0.99753857  0.73038562     0.01600
C550        C  0.24739735  0.99798474  0.70803886    -0.18900
H551        H  0.24681773  0.99818521  0.67328104     0.03700
H552        H  0.24948190  0.99520367  0.83155344     0.03700
C553        C  0.11970444  0.97264832  0.68226690    -0.13900
C554        C  0.11793087  0.99765155  0.64795858     0.08200
C555        C  0.14562212  0.52425423  0.64347375    -0.13900
C556        C  0.17542775  0.52519181  0.67183079    -0.13900
C557        C  0.17890819  0.99881126  0.70459644     0.08200
C558        C  0.15036492  0.97283010  0.71006728    -0.13900
H559        H  0.09844325  0.95189841  0.68618418     0.12200
H560        H  0.14443318  0.54417633  0.61761092     0.12200
H561        H  0.19658968  0.54596951  0.66741702     0.12200
H562        H  0.15234680  0.95201645  0.73486328     0.12200
C563        C  0.14906792  0.96901494  0.86450163    -0.13900
C564        C  0.12005109  0.49516665  0.85985994     0.08200
C565        C  0.12066294  0.51997848  0.82531639    -0.13900
C566        C  0.15096746  0.52028109  0.79728382    -0.13900
C567        C  0.18042315  0.99465947  0.80262291     0.08200
C568        C  0.17860123  0.96868545  0.83594776    -0.13900
H569        H  0.14895102  0.94927921  0.89057275     0.12200
H570        H  0.09858199  0.54008477  0.82117180     0.12200
H571        H  0.15184496  0.54087151  0.77219153     0.12200
H572        H  0.20056402  0.94850039  0.84044779     0.12200
C573        C  0.37549451  0.97382254  0.67929426    -0.13900
C574        C  0.37633542  0.99913663  0.64525649     0.08200
C575        C  0.34734250  0.02479146  0.64063259    -0.13900
C576        C  0.31771752  0.02491314  0.66909963    -0.13900
C577        C  0.31582787  0.99873309  0.70222352     0.08200
C578        C  0.34511912  0.97318122  0.70715318    -0.13900
H579        H  0.39741917  0.95348483  0.68305953     0.12200
H580        H  0.34748882  0.04462620  0.61466573     0.12200
H581        H  0.29574028  0.04509723  0.66469043     0.12200
H582        H  0.34408515  0.95216718  0.73176052     0.12200
C583        C  0.34588809  0.51881220  0.79543066    -0.13900
C584        C  0.31726543  0.99294410  0.80015848     0.08200
C585        C  0.32010020  0.96591347  0.83228067    -0.13900
C586        C  0.35010444  0.96556569  0.86045074    -0.13900
C587        C  0.37844842  0.99166704  0.85652160     0.08200
C588        C  0.37649824  0.51795218  0.82324175    -0.13900
H589        H  0.34410770  0.54029012  0.77138253     0.12200
H590        H  0.29840364  0.94563926  0.83636970     0.12200
H591        H  0.35087578  0.94526194  0.88592351     0.12200
H592        H  0.39790738  0.53865761  0.82011748     0.12200
C593        C  0.01741598  0.61504155  0.68344924    -0.13900
C594        C  0.49157218  0.61400179  0.64936140     0.08200
C595        C  0.46540396  0.64256896  0.64511582    -0.13900
C596        C  0.46573875  0.67274113  0.67313197    -0.13900
C597        C  0.49274831  0.67548111  0.70550103     0.08200
C598        C  0.01871386  0.64594299  0.71093143    -0.13900
H599        H  0.03776362  0.59311387  0.68710274     0.12200
H600        H  0.44515138  0.64191204  0.61940230     0.12200
H601        H  0.44552669  0.69468950  0.66867119     0.12200
H602        H  0.04010340  0.64733086  0.73528624     0.12200
C603        C  0.47450162  0.61914584  0.82780993    -0.13900
C604        C  0.00143362  0.61866674  0.86165732     0.08200
C605        C  0.02718394  0.64740923  0.86537052    -0.13900
C606        C  0.02668618  0.67666487  0.83634112    -0.13900
C607        C  0.49851180  0.67831503  0.80348940     0.08200
C608        C  0.47311918  0.64909698  0.79941275    -0.13900
H609        H  0.45431390  0.59719262  0.82471488     0.12200
H610        H  0.04757910  0.64730285  0.89093758     0.12200
H611        H  0.04686783  0.69857054  0.83994922     0.12200
H612        H  0.45173265  0.64987177  0.77501493     0.12200
C613        C  0.47614395  0.87231270  0.67786356    -0.13900
C614        C  0.50127718  0.87211780  0.64366968     0.08200
C615        C  0.02664878  0.84272169  0.63917744    -0.13900
C616        C  0.02635959  0.81335528  0.66803949    -0.13900
C617        C  0.49940722  0.81221148  0.70122961     0.08200
C618        C  0.47471976  0.84221641  0.70596722    -0.13900
H619        H  0.45650690  0.89488112  0.68158955     0.12200
H620        H  0.04643469  0.84235603  0.61316906     0.12200
H621        H  0.04612809  0.79095880  0.66386304     0.12200
H622        H  0.45373163  0.84197188  0.73061708     0.12200
C623        C  0.01955490  0.87446360  0.82218916    -0.13900
C624        C  0.49218240  0.87683448  0.85487263     0.08200
C625        C  0.46503495  0.84937594  0.85806754    -0.13900
C626        C  0.46512047  0.81906911  0.83016531    -0.13900
C627        C  0.49283716  0.81509175  0.79900688     0.08200
C628        C  0.02046099  0.84347915  0.79479883    -0.13900
H629        H  0.04076009  0.89541717  0.81945329     0.12200
H630        H  0.44421319  0.85097378  0.88291930     0.12200
H631        H  0.44415813  0.79796996  0.83380502     0.12200
H632        H  0.04234473  0.84106210  0.77132678     0.12200
O633        O  0.49393511  0.39371988  0.42755514    -0.75900
O634        O  0.49888914  0.43952033  0.37759323    -0.54800
C635        C  0.99484570  0.40534689  0.38871461     0.77800
O636        O  0.89455063  0.49891573  0.07343162    -0.60500
O637        O  0.93936326  0.49336692  0.12493944    -0.53500
C638        C  0.90544444  0.49675814  0.11267931     0.69900
O639        O  0.89557590  0.99208138  0.42920156    -0.75000
O640        O  0.94084871  0.99697013  0.37862229    -0.55600
C641        C  0.90684642  0.49354133  0.39025034     0.75900
O642        O  0.00197310  0.39058920  0.07159268    -0.60200
O643        O  0.99677099  0.43494537  0.12374758    -0.53300
C644        C  0.99984765  0.40110911  0.11100606     0.72400
Zr645      Zr  0.49845320  0.41804443  0.50031782     2.54700
O646        O  0.94937176  0.37183231  0.50402971    -0.80800
O647        O  0.54790425  0.37217077  0.99650247    -0.94200
Zr648      Zr  0.92065523  0.99532244  0.50153752     2.64700
O649        O  0.87336928  0.44778988  0.50394564    -0.99100
O650        O  0.87456287  0.04457347  0.99801296    -0.81200
O651        O  0.95923768  0.45702883  0.45912746    -0.84500
O652        O  0.95833330  0.45516066  0.04309362    -2.19300
O653        O  0.60012761  0.49716961  0.07598666    -0.67900
O654        O  0.55478939  0.49246224  0.12651181    -0.52500
C655        C  0.58929517  0.99487686  0.11490567     0.70800
O656        O  0.50213394  0.09976160  0.43303618    -0.60800
O657        O  0.49739146  0.05525959  0.38097381    -0.52800
C658        C  0.50020037  0.08912234  0.39364049     0.72600
O659        O  0.99288265  0.09665578  0.07748704    -0.72200
O660        O  0.99795078  0.05083422  0.12749457    -0.50900
C661        C  0.49422077  0.08520524  0.11638343     0.74000
O662        O  0.60207240  0.99471330  0.43205363    -0.67600
O663        O  0.55721297  0.99936318  0.38047392    -0.56200
C664        C  0.59119474  0.99692778  0.39280306     0.72400
Zr665      Zr  0.57510050  0.49537247  0.00345876     2.77500
O666        O  0.62127688  0.04430159  0.50297396    -0.98300
O667        O  0.62123058  0.44599339  0.00517134    -0.79100
Zr668      Zr  0.99764181  0.07260219  0.00466978     2.70100
O669        O  0.54856714  0.11717264  0.01100219    -0.80400
O670        O  0.94852855  0.11914068  0.49969879    -0.99500
Zr671      Zr  0.49882370  0.99670228  0.41900656     2.21500
Zr672      Zr  0.99755433  0.49357908  0.08595720     2.11100
O673        O  0.53706630  0.03360903  0.04610529    -2.48200
O674        O  0.53755714  0.03530588  0.46190882    -0.80200
O675        O  0.53724883  0.45533691  0.04402583    -0.72400
O676        O  0.95858496  0.03524028  0.46092812    -2.33300
O677        O  0.53764201  0.45674092  0.45979593    -2.29500
O678        O  0.95853752  0.03373268  0.04518478    -0.74100
H679        H  0.94306317  0.43966186  0.06079181     0.77900
H680        H  0.94331839  0.05077297  0.44289020     0.78900
H681        H  0.55201602  0.04872784  0.06499066     0.81200
H682        H  0.55292882  0.44157431  0.44121227     0.78800
H683        H  0.88308389  0.06366660  0.51712473     0.41800
H684        H  0.93221005  0.11307530  0.02604781     0.40800
H685        H  0.56425612  0.11238135  0.48945977     0.40500
H686        H  0.61574453  0.05954821  0.02632706     0.38400
H687        H  0.60859991  0.42510595  0.01934219     0.41500
H688        H  0.55820907  0.37453641  0.46687975     0.36300
H689        H  0.92888672  0.38243524  0.48674418     0.42400
H690        H  0.87871709  0.43287807  0.02840493     0.38800
H691        H  0.64515078  0.03042511  0.01076009     0.43800
H692        H  0.53293475  0.34714925  0.49214740     0.42500
H693        H  0.85051607  0.46110372  0.51253148     0.42600
H694        H  0.96044784  0.14230089  0.00914348     0.43000
C695        C  0.99671937  0.27849963  0.22877098     0.01700
C696        C  0.99543815  0.27984644  0.27409019     0.01600
C697        C  0.99607686  0.24641250  0.29699404    -0.18900
C698        C  0.99690741  0.21169094  0.27632387     0.01700
C699        C  0.99539586  0.21036537  0.23101063     0.01600
C700        C  0.99584762  0.24379071  0.20812420    -0.18900
H701        H  0.99556844  0.24274241  0.17336912     0.03700
H702        H  0.99594418  0.24747109  0.33174984     0.03700
C703        C  0.78177911  0.49645494  0.22908110     0.01700
C704        C  0.78237529  0.49440417  0.27437690     0.01600
C705        C  0.74856935  0.49411680  0.29660195    -0.18900
C706        C  0.71416451  0.49480831  0.27536975     0.01700
C707        C  0.71359396  0.49653369  0.23009205     0.01600
C708        C  0.74737641  0.49719188  0.20784676    -0.18900
H709        H  0.74687175  0.49763209  0.17308769     0.03700
H710        H  0.74906567  0.49386862  0.33135941     0.03700
C711        C  0.61969475  0.47207079  0.18188480    -0.13900
C712        C  0.61763250  0.49772289  0.14825785     0.08200
C713        C  0.64580082  0.02417778  0.14373651    -0.13900
C714        C  0.67566108  0.02510784  0.17199762    -0.13900
C715        C  0.67891614  0.49799811  0.20433727     0.08200
C716        C  0.65050337  0.47183301  0.20941991    -0.13900
H717        H  0.59855209  0.45114488  0.18541005     0.12200
H718        H  0.64453966  0.04412196  0.11790167     0.12200
H719        H  0.69679122  0.04591828  0.16757206     0.12200
H720        H  0.65268851  0.45060616  0.23372608     0.12200
C721        C  0.64851523  0.46817923  0.36396166    -0.13900
C722        C  0.62038883  0.99538704  0.36005653     0.08200
C723        C  0.62129658  0.02053159  0.32585745    -0.13900
C724        C  0.65147891  0.02054780  0.29766369    -0.13900
C725        C  0.68010513  0.49355689  0.30210387     0.08200
C726        C  0.67802919  0.46756367  0.33537572    -0.13900
H727        H  0.64823174  0.44845892  0.39004130     0.12200
H728        H  0.59955459  0.04106456  0.32210827     0.12200
H729        H  0.65266125  0.04136294  0.27283656     0.12200
H730        H  0.69982582  0.44719904  0.33986956     0.12200
C731        C  0.87511125  0.47267021  0.17900087    -0.13900
C732        C  0.87629006  0.49845255  0.14546957     0.08200
C733        C  0.84760169  0.52449372  0.14122302    -0.13900
C734        C  0.81793710  0.52457385  0.16962848    -0.13900
C735        C  0.81576495  0.49801459  0.20231334     0.08200
C736        C  0.84473850  0.47206636  0.20685235    -0.13900
H737        H  0.89678146  0.45201244  0.18239071     0.12200
H738        H  0.84801536  0.54464389  0.11558681     0.12200
H739        H  0.79614778  0.54500930  0.16551485     0.12200
H740        H  0.84342977  0.45079541  0.23114488     0.12200
C741        C  0.84583152  0.01846210  0.29570555    -0.13900
C742        C  0.81700410  0.49224338  0.30026700     0.08200
C743        C  0.81972277  0.46556499  0.33279422    -0.13900
C744        C  0.84960069  0.46552215  0.36111609    -0.13900
C745        C  0.87799322  0.49153166  0.35692352     0.08200
C746        C  0.87644388  0.01770262  0.32346383    -0.13900
H747        H  0.84401819  0.03988847  0.27160313     0.12200
H748        H  0.79804767  0.44529623  0.33704934     0.12200
H749        H  0.85028900  0.44544434  0.38683226     0.12200
H750        H  0.89783586  0.03841193  0.32024204     0.12200
C751        C  0.51772113  0.11549002  0.18364025    -0.13900
C752        C  0.99221209  0.11367684  0.14998162     0.08200
C753        C  0.96543088  0.14172584  0.14617334    -0.13900
C754        C  0.96565176  0.17202198  0.17402169    -0.13900
C755        C  0.99312341  0.17535949  0.20578136     0.08200
C756        C  0.51863557  0.14643635  0.21105080    -0.13900
H757        H  0.53848404  0.09393513  0.18713409     0.12200
H758        H  0.94478341  0.14057178  0.12090701     0.12200
H759        H  0.94496086  0.19357533  0.16992395     0.12200
H760        H  0.54013728  0.14825371  0.23523853     0.12200
C761        C  0.97570830  0.11854680  0.32710454    -0.13900
C762        C  0.50101584  0.11839721  0.36102263     0.08200
C763        C  0.52640889  0.14742894  0.36514717    -0.13900
C764        C  0.52566160  0.17690840  0.33643968    -0.13900
C765        C  0.99930425  0.17814090  0.30364937     0.08200
C766        C  0.97439736  0.14857283  0.29886709    -0.13900
H767        H  0.95590045  0.09631391  0.32340822     0.12200
H768        H  0.54671010  0.14737764  0.39081470     0.12200
H769        H  0.54561187  0.19899420  0.34032484     0.12200
H770        H  0.95335078  0.14913078  0.27407810     0.12200
C771        C  0.97555238  0.37190008  0.17770789    -0.13900
C772        C  0.00077595  0.37176063  0.14358364     0.08200
C773        C  0.52584923  0.34252404  0.13907481    -0.13900
C774        C  0.52531989  0.31314313  0.16789972    -0.13900
C775        C  0.99905429  0.31199291  0.20137501     0.08200
C776        C  0.97424486  0.34189496  0.20597882    -0.13900
H777        H  0.95584229  0.39441458  0.18133232     0.12200
H778        H  0.54571819  0.34209355  0.11315007     0.12200
H779        H  0.54500606  0.29066103  0.16380603     0.12200
H780        H  0.95329426  0.34164176  0.23067641     0.12200
C781        C  0.51924246  0.37434805  0.32195867    -0.13900
C782        C  0.99251154  0.37662985  0.35509810     0.08200
C783        C  0.96536418  0.34917945  0.35825670    -0.13900
C784        C  0.96552512  0.31885055  0.33040756    -0.13900
C785        C  0.99326304  0.31489832  0.29927599     0.08200
C786        C  0.51965717  0.34348635  0.29438151    -0.13900
H787        H  0.54051856  0.39520764  0.31902072     0.12200
H788        H  0.94446681  0.35081565  0.38302213     0.12200
H789        H  0.94457001  0.29774089  0.33401971     0.12200
H790        H  0.54130400  0.34101437  0.27062530     0.12200
O791        O  0.49358090  0.39409413  0.92746352    -0.75900
O792        O  0.49848098  0.43984888  0.87746092    -0.54800
C793        C  0.99454082  0.40571563  0.88856547     0.77800
O794        O  0.89447515  0.49981836  0.57326322    -0.60500
O795        O  0.93920605  0.49318625  0.62464642    -0.53500
C796        C  0.90532540  0.49716365  0.61249029     0.69900
O797        O  0.89578601  0.99167399  0.92918531    -0.75000
O798        O  0.94105390  0.99721054  0.87872316    -0.55600
C799        C  0.90692325  0.49388593  0.89027951     0.75900
O800        O  0.00239154  0.39100554  0.57186620    -0.60200
O801        O  0.99572733  0.43528774  0.62385594    -0.53300
C802        C  0.99943355  0.40149373  0.61123084     0.72400
Zr803      Zr  0.49843427  0.41815433  0.00035536     2.54700
O804        O  0.95039434  0.37051331  0.00272060    -0.80800
O805        O  0.54660096  0.37073084  0.49520792    -0.94200
Zr806      Zr  0.92083413  0.99536017  0.00160899     2.64700
O807        O  0.87354417  0.44751672  0.00227481    -0.99100
O808        O  0.87384808  0.04399967  0.49766401    -0.81200
O809        O  0.95919985  0.45708199  0.95916900    -0.84500
O810        O  0.95830455  0.45523097  0.54286711    -2.19300
O811        O  0.60040506  0.49664279  0.57574671    -0.67900
O812        O  0.55505711  0.49240861  0.62630381    -0.52500
C813        C  0.58905505  0.99504732  0.61486711     0.70800
O814        O  0.50312857  0.10015089  0.93369705    -0.60800
O815        O  0.49776462  0.05570141  0.88165095    -0.52800
C816        C  0.50093293  0.08953142  0.89430573     0.72600
O817        O  0.99200635  0.09703971  0.57700920    -0.72200
O818        O  0.99710756  0.05121197  0.62700532    -0.50900
C819        C  0.49426282  0.08543989  0.61576813     0.74000
O820        O  0.60212817  0.99403158  0.93226214    -0.67600
O821        O  0.55724590  0.99896517  0.88073147    -0.56200
C822        C  0.59123754  0.99637615  0.89302741     0.72400
Zr823      Zr  0.57526996  0.49536022  0.50323473     2.77500
O824        O  0.62193782  0.04301004  0.00194246    -0.98300
O825        O  0.62178557  0.44632631  0.50525781    -0.79100
Zr826      Zr  0.99737070  0.07259693  0.50435873     2.70100
O827        O  0.54529963  0.11975746  0.51073618    -0.80400
O828        O  0.94827034  0.11868680  0.00129482    -0.99500
Zr829      Zr  0.49872527  0.99689788  0.91914507     2.21500
Zr830      Zr  0.99741648  0.49366570  0.58568282     2.11100
O831        O  0.53662624  0.03387508  0.54566254    -2.48200
O832        O  0.53777576  0.03500613  0.96214115    -0.80200
O833        O  0.53742166  0.45528758  0.54379877    -0.72400
O834        O  0.95871340  0.03545337  0.96117400    -2.33300
O835        O  0.53760986  0.45678438  0.95979952    -2.29500
O836        O  0.95824175  0.03387253  0.54498188    -0.74100
H837        H  0.94303689  0.43974606  0.56058035     0.77900
H838        H  0.94345695  0.05101735  0.94316209     0.78900
H839        H  0.55146414  0.04911064  0.56453519     0.81200
H840        H  0.55288375  0.44169032  0.94112747     0.78800
H841        H  0.88095189  0.06148428  0.02198492     0.41800
H842        H  0.93280445  0.11473824  0.52506703     0.40800
H843        H  0.56593730  0.11025104  0.98779443     0.40500
H844        H  0.61522437  0.06000723  0.52812631     0.38400
H845        H  0.60847029  0.42451248  0.51642310     0.41500
H846        H  0.56267729  0.37913396  0.97116096     0.36300
H847        H  0.92823359  0.38256259  0.99009927     0.42400
H848        H  0.87988680  0.43241394  0.52909742     0.38800
H849        H  0.64477391  0.03177844  0.51086045     0.43800
H850        H  0.53532421  0.34898108  0.98785109     0.42500
H851        H  0.85020476  0.46092115  0.00863879     0.42600
H852        H  0.96112950  0.14286675  0.50599077     0.43000
C853        C  0.99634915  0.27868697  0.72884531     0.01700
C854        C  0.99526871  0.28012389  0.77415243     0.01600
C855        C  0.99619724  0.24670460  0.79716675    -0.18900
C856        C  0.99685174  0.21191426  0.77658867     0.01700
C857        C  0.99521838  0.21049368  0.73126289     0.01600
C858        C  0.99567445  0.24392350  0.70831107    -0.18900
H859        H  0.99540906  0.24285445  0.67355891     0.03700
H860        H  0.99629288  0.24781328  0.83192137     0.03700
C861        C  0.78182637  0.49711199  0.72938145     0.01700
C862        C  0.78243791  0.49488056  0.77465646     0.01600
C863        C  0.74869010  0.49457406  0.79694206    -0.18900
C864        C  0.71424931  0.49540174  0.77580240     0.01700
C865        C  0.71360198  0.49731371  0.73050670     0.01600
C866        C  0.74737796  0.49799741  0.70822657    -0.18900
H867        H  0.74682607  0.49847345  0.67347367     0.03700
H868        H  0.74928622  0.49423286  0.83169811     0.03700
C869        C  0.61997282  0.47213926  0.68196575    -0.13900
C870        C  0.61795425  0.49750512  0.64803888     0.08200
C871        C  0.64591926  0.02405809  0.64307602    -0.13900
C872        C  0.67581427  0.02505739  0.67128048    -0.13900
C873        C  0.67891274  0.49860729  0.70468065     0.08200
C874        C  0.65061132  0.47232012  0.70978220    -0.13900
H875        H  0.59891149  0.45114386  0.68557430     0.12200
H876        H  0.64488949  0.04362284  0.61684013     0.12200
H877        H  0.69714666  0.04557606  0.66639584     0.12200
H878        H  0.65277724  0.45128444  0.73430917     0.12200
C879        C  0.64895498  0.46889832  0.86482455    -0.13900
C880        C  0.62043435  0.99503393  0.86024844     0.08200
C881        C  0.62106254  0.02017225  0.82602857    -0.13900
C882        C  0.65121119  0.02050452  0.79779084    -0.13900
C883        C  0.68028653  0.49412986  0.80269748     0.08200
C884        C  0.67846717  0.46836482  0.83624862    -0.13900
H885        H  0.64883961  0.44932190  0.89105598     0.12200
H886        H  0.59910874  0.04047944  0.82229443     0.12200
H887        H  0.65213496  0.04131504  0.77294257     0.12200
H888        H  0.70040877  0.44818370  0.84090958     0.12200
C889        C  0.87544204  0.47371960  0.67950411    -0.13900
C890        C  0.87620622  0.49896395  0.64539035     0.08200
C891        C  0.84722604  0.52463889  0.64082078    -0.13900
C892        C  0.81768837  0.52485132  0.66940165    -0.13900
C893        C  0.81582770  0.49869580  0.70255370     0.08200
C894        C  0.84513387  0.47315341  0.70747154    -0.13900
H895        H  0.89736555  0.45337804  0.68324983     0.12200
H896        H  0.84731998  0.54443535  0.61481424     0.12200
H897        H  0.79572787  0.54505741  0.66501911     0.12200
H898        H  0.84413767  0.45216647  0.73211200     0.12200
C899        C  0.84585526  0.01924778  0.79600781    -0.13900
C900        C  0.81704805  0.49269825  0.80049102     0.08200
C901        C  0.82000346  0.46569812  0.83263314    -0.13900
C902        C  0.84994513  0.46558973  0.86086537    -0.13900
C903        C  0.87810586  0.49188376  0.85694964     0.08200
C904        C  0.87655054  0.01819901  0.82368311    -0.13900
H905        H  0.84400988  0.04087211  0.77214089     0.12200
H906        H  0.79846868  0.44524119  0.83666019     0.12200
H907        H  0.85084968  0.44527351  0.88632353     0.12200
H908        H  0.89792845  0.03894976  0.82068118     0.12200
C909        C  0.51808951  0.11581862  0.68290467    -0.13900
C910        C  0.99137173  0.11404378  0.64965135     0.08200
C911        C  0.96523594  0.14265102  0.64550538    -0.13900
C912        C  0.96555151  0.17273832  0.67365893    -0.13900
C913        C  0.99258287  0.17544627  0.70602283     0.08200
C914        C  0.51892300  0.14664113  0.71054679    -0.13900
H915        H  0.53891828  0.09430849  0.68623690     0.12200
H916        H  0.94498854  0.14207703  0.61978654     0.12200
H917        H  0.94531478  0.19467437  0.66927111     0.12200
H918        H  0.54044635  0.14841350  0.73471111     0.12200
C919        C  0.97488873  0.11923597  0.82815287    -0.13900
C920        C  0.50164067  0.11872181  0.86156023     0.08200
C921        C  0.52714423  0.14769735  0.86518584    -0.13900
C922        C  0.52624991  0.17699327  0.83620920    -0.13900
C923        C  0.99912389  0.17838026  0.80399039     0.08200
C924        C  0.97353876  0.14932147  0.79996000    -0.13900
H925        H  0.95453644  0.09743366  0.82507416     0.12200
H926        H  0.54762130  0.14776197  0.89066471     0.12200
H927        H  0.54622305  0.19909800  0.83975656     0.12200
H928        H  0.95201772  0.15032015  0.77573477     0.12200
C929        C  0.97482114  0.37210805  0.67779052    -0.13900
C930        C  0.00022483  0.37213970  0.64382584     0.08200
C931        C  0.52632616  0.34232899  0.63910842    -0.13900
C932        C  0.52577688  0.31306784  0.66810413    -0.13900
C933        C  0.99841587  0.31217340  0.70136881     0.08200
C934        C  0.97346943  0.34199014  0.70593154    -0.13900
H935        H  0.95503498  0.39456150  0.68139027     0.12200
H936        H  0.54602191  0.34163625  0.61301468     0.12200
H937        H  0.54527360  0.29043155  0.66393542     0.12200
H938        H  0.95244862  0.34161559  0.73054953     0.12200
C939        C  0.51943010  0.37429036  0.82247132    -0.13900
C940        C  0.99196043  0.37713968  0.85479787     0.08200
C941        C  0.96513453  0.34940801  0.85833857    -0.13900
C942        C  0.96537362  0.31902354  0.83057772    -0.13900
C943        C  0.99287801  0.31528819  0.79914926     0.08200
C944        C  0.52009010  0.34327623  0.79512914    -0.13900
H945        H  0.54088640  0.39499828  0.81983850     0.12200
H946        H  0.94450261  0.35081200  0.88341518     0.12200
H947        H  0.94472175  0.29766869  0.83455252     0.12200
H948        H  0.54204426  0.34058145  0.77178358     0.12200
O949        O  0.49436906  0.89362927  0.42766012    -0.75900
O950        O  0.50005551  0.93928152  0.37763582    -0.54800
C951        C  0.99588463  0.90512378  0.38870000     0.77800
O952        O  0.89450788  0.99897157  0.07320333    -0.60500
O953        O  0.93932134  0.99345473  0.12470455    -0.53500
C954        C  0.90539757  0.99687675  0.11245257     0.69900
O955        O  0.89561455  0.49140537  0.42925508    -0.75000
O956        O  0.94079939  0.49711269  0.37870746    -0.55600
C957        C  0.90686091  0.99385004  0.39020091     0.75900
O958        O  0.00239244  0.89072141  0.07161586    -0.60200
O959        O  0.99695418  0.93504071  0.12378716    -0.53300
C960        C  0.00021285  0.90122633  0.11103536     0.72400
Zr961      Zr  0.49869513  0.91787242  0.50048591     2.54700
O962        O  0.94903635  0.87250378  0.50266358    -0.80800
O963        O  0.54740426  0.87187193  0.99602073    -0.94200
Zr964      Zr  0.92066133  0.49560021  0.50156412     2.64700
O965        O  0.87419189  0.94665808  0.50282092    -0.99100
O966        O  0.87520088  0.54544972  0.99876080    -0.81200
O967        O  0.95934400  0.95689277  0.45902135    -0.84500
O968        O  0.95857113  0.95506628  0.04297459    -2.19300
O969        O  0.60060579  0.99639979  0.07589274    -0.67900
O970        O  0.55524559  0.99231021  0.12647701    -0.52500
C971        C  0.58881080  0.49536396  0.11498880     0.70800
O972        O  0.50163939  0.59995443  0.43310299    -0.60800
O973        O  0.49696775  0.55547169  0.38102851    -0.52800
C974        C  0.49968575  0.58932169  0.39371852     0.72600
O975        O  0.99197487  0.59669613  0.07732420    -0.72200
O976        O  0.99775571  0.55095047  0.12734000    -0.50900
C977        C  0.49327315  0.58536041  0.11597833     0.74000
O978        O  0.60174586  0.49391345  0.43156526    -0.67600
O979        O  0.55676882  0.49896711  0.38015335    -0.56200
C980        C  0.59076233  0.49609023  0.39231995     0.72400
Zr981      Zr  0.57526357  0.99465047  0.00357220     2.77500
O982        O  0.62139900  0.54431467  0.50260172    -0.98300
O983        O  0.62046285  0.94440000  0.00497032    -0.79100
Zr984      Zr  0.99779567  0.57252526  0.00468617     2.70100
O985        O  0.54727742  0.61770672  0.01106366    -0.80400
O986        O  0.94911635  0.61952421  0.50068541    -0.99500
Zr987      Zr  0.49850772  0.49692137  0.41896200     2.21500
Zr988      Zr  0.99764094  0.99360827  0.08588509     2.11100
O989        O  0.53652532  0.53391826  0.04597312    -2.48200
O990        O  0.53743140  0.53545129  0.46173636    -0.80200
O991        O  0.53710943  0.95494868  0.04418122    -0.72400
O992        O  0.95866656  0.53540507  0.46087863    -2.33300
O993        O  0.53792469  0.95648703  0.45990491    -2.29500
O994        O  0.95856957  0.53376706  0.04519900    -0.74100
H995        H  0.94332396  0.93953882  0.06066154     0.77900
H996        H  0.94344511  0.55097068  0.44282821     0.78900
H997        H  0.55132727  0.54915071  0.06489098     0.81200
H998        H  0.55332402  0.94136527  0.44139130     0.78800
H999        H  0.88133245  0.56229273  0.52069997     0.41800
H1000       H  0.93181132  0.61325012  0.02268304     0.40800
H1001       H  0.56517899  0.61069249  0.48958577     0.40500
H1002       H  0.61601024  0.55966720  0.02767585     0.38400
H1003       H  0.60828025  0.92447792  0.02135114     0.41500
H1004       H  0.55785163  0.87342041  0.46715040     0.36300
H1005       H  0.92975804  0.88244302  0.48313857     0.42400
H1006       H  0.87833683  0.93364748  0.03000009     0.38800
H1007       H  0.64493042  0.53146915  0.00896937     0.43800
H1008       H  0.53398587  0.84712701  0.49559925     0.42500
H1009       H  0.85046966  0.95997683  0.50724999     0.42600
H1010       H  0.96177768  0.64272775  0.01114340     0.43000
C1011       C  0.99790322  0.77843916  0.22857215     0.01700
C1012       C  0.99643521  0.77980115  0.27387538     0.01600
C1013       C  0.99662226  0.74638437  0.29680788    -0.18900
C1014       C  0.99711879  0.71165050  0.27619849     0.01700
C1015       C  0.99588752  0.71032123  0.23088218     0.01600
C1016       C  0.99694347  0.74372211  0.20794909    -0.18900
H1017       H  0.99685993  0.74264834  0.17319470     0.03700
H1018       H  0.99636331  0.74746426  0.33156125     0.03700
C1019       C  0.78191224  0.99724937  0.22924570     0.01700
C1020       C  0.78253257  0.99491926  0.27451813     0.01600
C1021       C  0.74880572  0.99472850  0.29683477    -0.18900
C1022       C  0.71439191  0.99569575  0.27570226     0.01700
C1023       C  0.71374330  0.99751752  0.23043667     0.01600
C1024       C  0.74748137  0.99818767  0.20811528    -0.18900
H1025       H  0.74691413  0.99865838  0.17336155     0.03700
H1026       H  0.74938561  0.99435779  0.33159279     0.03700
C1027       C  0.62025181  0.97202173  0.18201581    -0.13900
C1028       C  0.61814028  0.99741641  0.14812862     0.08200
C1029       C  0.64547125  0.52431728  0.14398218    -0.13900
C1030       C  0.67553586  0.52471806  0.17198422    -0.13900
C1031       C  0.67906474  0.99870931  0.20469798     0.08200
C1032       C  0.65088057  0.97230895  0.20982435    -0.13900
H1033       H  0.59926587  0.95094850  0.18560837     0.12200
H1034       H  0.64423553  0.54447733  0.11837161     0.12200
H1035       H  0.69680996  0.54539492  0.16765024     0.12200
H1036       H  0.65314111  0.95127305  0.23434432     0.12200
C1037       C  0.64899817  0.96930521  0.36452224    -0.13900
C1038       C  0.61982065  0.49416677  0.35936726     0.08200
C1039       C  0.62064528  0.51910535  0.32496029    -0.13900
C1040       C  0.65094323  0.51924561  0.29693383    -0.13900
C1041       C  0.68044265  0.99460622  0.30256341     0.08200
C1042       C  0.67838271  0.96858794  0.33580477    -0.13900
H1043       H  0.64867073  0.94948641  0.39050316     0.12200
H1044       H  0.59881375  0.53951573  0.32102228     0.12200
H1045       H  0.65207043  0.54002114  0.27206082     0.12200
H1046       H  0.70006733  0.94807522  0.34012504     0.12200
C1047       C  0.87527379  0.97336196  0.17920698    -0.13900
C1048       C  0.87625044  0.99874805  0.14526597     0.08200
C1049       C  0.84743948  0.02462291  0.14074576    -0.13900
C1050       C  0.81788462  0.02494459  0.16930947    -0.13900
C1051       C  0.81587517  0.99871582  0.20238007     0.08200
C1052       C  0.84496451  0.97292281  0.20715443    -0.13900
H1053       H  0.89704484  0.95284415  0.18284599     0.12200
H1054       H  0.84769329  0.04448799  0.11480877     0.12200
H1055       H  0.79604268  0.04529262  0.16499559     0.12200
H1056       H  0.84379816  0.95185805  0.23169258     0.12200
C1057       C  0.84588406  0.51791134  0.29543098    -0.13900
C1058       C  0.81711807  0.99261357  0.30033110     0.08200
C1059       C  0.81991968  0.96572848  0.33262325    -0.13900
C1060       C  0.84979043  0.96566664  0.36094181    -0.13900
C1061       C  0.87803758  0.99185762  0.35691776     0.08200
C1062       C  0.87650944  0.51717886  0.32323293    -0.13900
H1063       H  0.84420363  0.53918561  0.27113763     0.12200
H1064       H  0.79831166  0.94535701  0.33671594     0.12200
H1065       H  0.85058749  0.94545966  0.38652226     0.12200
H1066       H  0.89800765  0.53775862  0.31983549     0.12200
C1067       C  0.51693839  0.61536720  0.18327154    -0.13900
C1068       C  0.99168328  0.61374430  0.14984266     0.08200
C1069       C  0.96532610  0.64217824  0.14585975    -0.13900
C1070       C  0.96582090  0.67243009  0.17376193    -0.13900
C1071       C  0.99317977  0.67534478  0.20570508     0.08200
C1072       C  0.51806555  0.64625034  0.21075744    -0.13900
H1073       H  0.53764944  0.59374178  0.18660096     0.12200
H1074       H  0.94482316  0.64136465  0.12042002     0.12200
H1075       H  0.94547812  0.69429467  0.16953349     0.12200
H1076       H  0.53966128  0.64794554  0.23484592     0.12200
C1077       C  0.97580241  0.61844313  0.32695259    -0.13900
C1078       C  0.50046021  0.61856501  0.36113101     0.08200
C1079       C  0.52571974  0.64767904  0.36540541    -0.13900
C1080       C  0.52509604  0.67702668  0.33657500    -0.13900
C1081       C  0.99929605  0.67811991  0.30359665     0.08200
C1082       C  0.97435391  0.64856968  0.29883807    -0.13900
H1083       H  0.95600409  0.59619989  0.32326105     0.12200
H1084       H  0.54586258  0.64776468  0.39123994     0.12200
H1085       H  0.54498649  0.69915704  0.34054429     0.12200
H1086       H  0.95325066  0.64917480  0.27411196     0.12200
C1087       C  0.97623757  0.87182785  0.17778505    -0.13900
C1088       C  0.00137616  0.87186967  0.14358712     0.08200
C1089       C  0.52533355  0.84255386  0.13897941    -0.13900
C1090       C  0.52504766  0.81314605  0.16774713    -0.13900
C1091       C  0.00007795  0.81196819  0.20120816     0.08200
C1092       C  0.97513699  0.84175089  0.20595787    -0.13900
H1093       H  0.95642242  0.89423598  0.18153047     0.12200
H1094       H  0.54503161  0.84218045  0.11288113     0.12200
H1095       H  0.54473353  0.79069540  0.16343198     0.12200
H1096       H  0.95422651  0.84134255  0.23069571     0.12200
C1097       C  0.52020472  0.87398308  0.32206801    -0.13900
C1098       C  0.99367200  0.87642357  0.35506667     0.08200
C1099       C  0.96650855  0.84899397  0.35816039    -0.13900
C1100       C  0.96659598  0.81877199  0.33018645    -0.13900
C1101       C  0.99432807  0.81484912  0.29905309     0.08200
C1102       C  0.52042868  0.84315018  0.29442465    -0.13900
H1103       H  0.54153277  0.89478279  0.31907833     0.12200
H1104       H  0.94562630  0.85058382  0.38294551     0.12200
H1105       H  0.94559656  0.79769551  0.33372559     0.12200
H1106       H  0.54199270  0.84061575  0.27057219     0.12200
O1107       O  0.49281989  0.89387369  0.92750042    -0.75900
O1108       O  0.49858283  0.93957729  0.87755485    -0.54800
C1109       C  0.99522064  0.90552690  0.88856517     0.77800
O1110       O  0.89465381  0.99971674  0.57332241    -0.60500
O1111       O  0.93939416  0.99326825  0.62473481    -0.53500
C1112       C  0.90552211  0.99723410  0.61256525     0.69900
O1113       O  0.89564547  0.49206892  0.92929623    -0.75000
O1114       O  0.94090222  0.49710776  0.87872674    -0.55600
C1115       C  0.90706999  0.99378203  0.89019186     0.75900
O1116       O  0.00286895  0.89089655  0.57157393    -0.60200
O1117       O  0.99659340  0.93526583  0.62354182    -0.53300
C1118       C  0.00028158  0.90145633  0.61093637     0.72400
Zr1119     Zr  0.49810192  0.91801600  0.00038081     2.54700
O1120       O  0.95065118  0.87057201  0.00226054    -0.80800
O1121       O  0.54736845  0.87099913  0.49627339    -0.94200
Zr1122     Zr  0.92070013  0.49553586  0.00171658     2.64700
O1123       O  0.87442148  0.94667530  0.00248097    -0.99100
O1124       O  0.87490924  0.54520691  0.49690853    -0.81200
O1125       O  0.95943566  0.95694398  0.95913220    -0.84500
O1126       O  0.95848166  0.95514021  0.54287479    -2.19300
O1127       O  0.60033143  0.99675982  0.57586399    -0.67900
O1128       O  0.55504165  0.99219431  0.62643300    -0.52500
C1129       C  0.58910498  0.49502351  0.61476544     0.70800
O1130       O  0.50201104  0.60002952  0.93343719    -0.60800
O1131       O  0.49688492  0.55559180  0.88136188    -0.52800
C1132       C  0.49983493  0.58942110  0.89404255     0.72600
O1133       O  0.99223733  0.59678920  0.57701147    -0.72200
O1134       O  0.99729008  0.55101219  0.62707602    -0.50900
C1135       C  0.49389868  0.58535047  0.61571088     0.74000
O1136       O  0.60172565  0.49411624  0.93198425    -0.67600
O1137       O  0.55681249  0.49902520  0.88048781    -0.56200
C1138       C  0.59080621  0.49627925  0.89273892     0.72400
Zr1139     Zr  0.57530752  0.99523075  0.50343717     2.77500
O1140       O  0.62131591  0.54421213  0.00209275    -0.98300
O1141       O  0.62207074  0.94639788  0.50465818    -0.79100
Zr1142     Zr  0.99764567  0.57253772  0.50430441     2.70100
O1143       O  0.54602230  0.61900172  0.51016361    -0.80400
O1144       O  0.94979056  0.61993862  0.00018066    -0.99500
Zr1145     Zr  0.49840873  0.49700133  0.91914251     2.21500
Zr1146     Zr  0.99747342  0.99381805  0.58562544     2.11100
O1147       O  0.53661993  0.53398453  0.54559115    -2.48200
O1148       O  0.53735916  0.53545216  0.96191519    -0.80200
O1149       O  0.53752883  0.95515112  0.54408506    -0.72400
O1150       O  0.95865720  0.53553097  0.96123142    -2.33300
O1151       O  0.53757986  0.95635957  0.95981427    -2.29500
O1152       O  0.95844241  0.53391687  0.54500578    -0.74100
H1153       H  0.94328062  0.93960475  0.56060757     0.77900
H1154       H  0.94343405  0.55115828  0.94325428     0.78900
H1155       H  0.55145293  0.54921248  0.56447995     0.81200
H1156       H  0.55280636  0.94116276  0.94119491     0.78800
H1157       H  0.88261429  0.56263028  0.02206389     0.41800
H1158       H  0.93295079  0.61436603  0.52548305     0.40800
H1159       H  0.56511338  0.61054814  0.98842967     0.40500
H1160       H  0.61388061  0.56144082  0.52592362     0.38400
H1161       H  0.60811026  0.92355533  0.51103461     0.41500
H1162       H  0.55777692  0.87450044  0.96687423     0.36300
H1163       H  0.92849585  0.88277609  0.98982212     0.42400
H1164       H  0.87860188  0.93331616  0.53004070     0.38800
H1165       H  0.64432336  0.53233621  0.51335793     0.43800
H1166       H  0.53433277  0.84782627  0.99529904     0.42500
H1167       H  0.85060693  0.96001217  0.00609930     0.42600
H1168       H  0.96172551  0.64296106  0.50831492     0.43000
C1169       C  0.99814153  0.77870039  0.72864272     0.01700
C1170       C  0.99659589  0.78001781  0.77394649     0.01600
C1171       C  0.99706105  0.74655313  0.79684645    -0.18900
C1172       C  0.99771032  0.71181834  0.77619954     0.01700
C1173       C  0.99646179  0.71049618  0.73085912     0.01600
C1174       C  0.99744788  0.74397272  0.70799180    -0.18900
H1175       H  0.99745786  0.74296628  0.67323757     0.03700
H1176       H  0.99685326  0.74757819  0.83160273     0.03700
C1177       C  0.78191547  0.99788696  0.72925641     0.01700
C1178       C  0.78252407  0.99575410  0.77453458     0.01600
C1179       C  0.74878149  0.99552782  0.79680922    -0.18900
C1180       C  0.71434219  0.99624821  0.77567133     0.01700
C1181       C  0.71366955  0.99800496  0.73036492     0.01600
C1182       C  0.74746579  0.99868921  0.70808925    -0.18900
H1183       H  0.74694559  0.99901567  0.67333367     0.03700
H1184       H  0.74938011  0.99521837  0.83156653     0.03700
C1185       C  0.61973170  0.97287515  0.68247757    -0.13900
C1186       C  0.61792241  0.99772942  0.64804789     0.08200
C1187       C  0.64569875  0.52419106  0.64368723    -0.13900
C1188       C  0.67556793  0.52502996  0.67197567    -0.13900
C1189       C  0.67896265  0.99912901  0.70453435     0.08200
C1190       C  0.65043012  0.97316631  0.71019628    -0.13900
H1191       H  0.59846885  0.95215097  0.68655496     0.12200
H1192       H  0.64450209  0.54414116  0.61785341     0.12200
H1193       H  0.69674962  0.54578882  0.66756166     0.12200
H1194       H  0.65243875  0.95244647  0.73509090     0.12200
C1195       C  0.64935906  0.96930107  0.86473765    -0.13900
C1196       C  0.61998886  0.49454573  0.85994133     0.08200
C1197       C  0.62068963  0.51939669  0.82545598    -0.13900
C1198       C  0.65098595  0.51963558  0.79744030    -0.13900
C1199       C  0.68044374  0.99486502  0.80263726     0.08200
C1200       C  0.67871223  0.96887643  0.83595796    -0.13900
H1201       H  0.64929990  0.94952371  0.89076670     0.12200
H1202       H  0.59871412  0.53963111  0.82139548     0.12200
H1203       H  0.65196841  0.54031778  0.77245721     0.12200
H1204       H  0.70062325  0.94860648  0.84028442     0.12200
C1205       C  0.87560615  0.97422761  0.67974966    -0.13900
C1206       C  0.87642326  0.99927619  0.64545441     0.08200
C1207       C  0.84746544  0.02494279  0.64063832    -0.13900
C1208       C  0.81785846  0.02529716  0.66912012    -0.13900
C1209       C  0.81593773  0.99931922  0.70245315     0.08200
C1210       C  0.84523486  0.97380086  0.70761857    -0.13900
H1211       H  0.89751530  0.95389822  0.68369174     0.12200
H1212       H  0.84761455  0.04459738  0.61448812     0.12200
H1213       H  0.79590253  0.04547235  0.66452394     0.12200
H1214       H  0.84418259  0.95291901  0.73237164     0.12200
C1215       C  0.84568696  0.51865373  0.79594197    -0.13900
C1216       C  0.81712612  0.99337034  0.80037889     0.08200
C1217       C  0.82002485  0.96616241  0.83229173    -0.13900
C1218       C  0.84999960  0.96576976  0.86049211    -0.13900
C1219       C  0.87824776  0.99200293  0.85679653     0.08200
C1220       C  0.87636811  0.51786425  0.82362792    -0.13900
H1221       H  0.84377602  0.54015513  0.77193536     0.12200
H1222       H  0.79842374  0.94575090  0.83616009     0.12200
H1223       H  0.85085041  0.94528814  0.88577210     0.12200
H1224       H  0.89769346  0.53865148  0.82046803     0.12200
C1225       C  0.51745019  0.61546174  0.68305290    -0.13900
C1226       C  0.99169127  0.61389496  0.64957671     0.08200
C1227       C  0.96600037  0.64287301  0.64509079    -0.13900
C1228       C  0.96665802  0.67309150  0.67304499    -0.13900
C1229       C  0.99356466  0.67550886  0.70557839     0.08200
C1230       C  0.51836671  0.64629675  0.71064950    -0.13900
H1231       H  0.53814739  0.59383673  0.68649966     0.12200
H1232       H  0.94587143  0.64249435  0.61924072     0.12200
H1233       H  0.94677189  0.69530897  0.66841023     0.12200
H1234       H  0.53981006  0.64796187  0.73491922     0.12200
C1235       C  0.97534069  0.61938772  0.82817163    -0.13900
C1236       C  0.50053154  0.61863416  0.86136852     0.08200
C1237       C  0.52597355  0.64762829  0.86524752    -0.13900
C1238       C  0.52525715  0.67692051  0.83629982    -0.13900
C1239       C  0.99984916  0.67829276  0.80363343     0.08200
C1240       C  0.97416106  0.64931668  0.79973252    -0.13900
H1241       H  0.95493600  0.59762662  0.82517941     0.12200
H1242       H  0.54630099  0.64768743  0.89088714     0.12200
H1243       H  0.54521062  0.69902071  0.84003401     0.12200
H1244       H  0.95270016  0.65026655  0.77543163     0.12200
C1245       C  0.97626057  0.87206901  0.67771168    -0.13900
C1246       C  0.00150002  0.87218284  0.64360648     0.08200
C1247       C  0.52607007  0.84237191  0.63910923    -0.13900
C1248       C  0.52550326  0.81300772  0.66794343    -0.13900
C1249       C  0.00025325  0.81228635  0.70129593     0.08200
C1250       C  0.97518622  0.84199455  0.70591380    -0.13900
H1251       H  0.95633463  0.89439482  0.68133876     0.12200
H1252       H  0.54577807  0.84177986  0.61302289     0.12200
H1253       H  0.54502423  0.79040263  0.66370245     0.12200
H1254       H  0.95419705  0.84152337  0.73055970     0.12200
C1255       C  0.51878897  0.87415538  0.82228345    -0.13900
C1256       C  0.99296414  0.87689312  0.85482748     0.08200
C1257       C  0.96612959  0.84915112  0.85813921    -0.13900
C1258       C  0.96651586  0.81880052  0.83033833    -0.13900
C1259       C  0.99419329  0.81508940  0.79910435     0.08200
C1260       C  0.51942433  0.84319629  0.79485542    -0.13900
H1261       H  0.54022052  0.89488309  0.81962457     0.12200
H1262       H  0.94532718  0.85055762  0.88302589     0.12200
H1263       H  0.94579321  0.79748116  0.83408785     0.12200
H1264       H  0.54135204  0.84056682  0.77146721     0.12200
loop_ 
_geom_bond_atom_site_label_1 
_geom_bond_atom_site_label_2 
_geom_bond_distance 
_geom_bond_site_symmetry_2 
_ccdc_geom_bond_type 
O1          Zr13   2.437       .  S
O1          C635   1.288       .  A
O2         Zr355   2.433       .  S
O2          C635   1.287       .  A
C3          O633   1.287       .  A
C3          O634   1.288       .  A
C3          C150   1.472       .  S
O4         Zr490   2.438       .  S
O4            C6   1.288       .  A
O5          Zr40   2.429       .  S
O5            C6   1.287       .  A
C6          C100   1.472       .  S
O7          Zr16   2.429       .  S
O7          C325   1.287       .  A
O8         Zr671   2.432       .  S
O8          C325   1.287       .  A
C9          O323   1.287       .  A
C9          O324   1.287       .  A
C9          C113   1.469       .  S
O10        Zr803   2.435       .  S
O10          C12   1.287       .  A
O11         Zr40   2.426       .  S
O11          C12   1.286       .  A
C12         C140   1.471       .  S
Zr13        O800   2.438   1_655  S
Zr13         O45   2.368   1_655  S
Zr13        O651   2.368       .  S
Zr13        O810   2.367       .  S
Zr13        O201   2.369   1_655  S
Zr13        O646   2.433       .  S
Zr13        O173   2.435   1_655  S
O14        Zr645   2.433       .  S
O14          H57   0.990       .  S
O15        Zr171   2.434   1_456  S
O15         H214   0.990       .  S
O15         H218   0.990       .  S
Zr16        O478   2.436       .  S
Zr16         O44   2.368   1_565  S
Zr16        O494   2.370       .  S
Zr16        O335   2.369       .  S
Zr16        O204   2.365   1_565  S
Zr16        O333   2.435       .  S
Zr16        O176   2.434   1_565  S
O17        Zr332   2.437       .  S
O17          H61   0.990       .  S
O17         H216   0.990       .  S
O18        Zr174   2.434   1_546  S
O18         H209   0.990   1_556  S
O19        Zr645   2.368       .  S
O19        Zr332   2.368       .  S
O19        Zr987   2.383       .  S
O20         Zr40   2.388       .  S
O20        Zr803   2.370       .  S
O20        Zr490   2.371       .  S
O20          H47   0.965       .  S
O21         Zr33   2.431       .  S
O21         C339   1.287       .  A
O22        Zr672   2.434   1_455  S
O22         C339   1.287       .  A
C23         O337   1.287       .  A
C23         O338   1.287       .  A
C23         C396   1.470       .  S
O24        Zr826   2.433   1_455  S
O24          C26   1.287       .  A
O25         Zr39   2.426   1_545  S
O25          C26   1.286   1_655  A
C26         C130   1.469       .  S
O27         Zr36   2.437       .  S
O27         C661   1.288       .  A
O28        Zr356   2.433   1_545  S
O28         C661   1.287       .  A
C29         O659   1.287       .  A
C29         O660   1.287       .  A
C29         C752   1.472       .  S
O30        Zr507   2.435       .  S
O30          C32   1.288       .  A
O31         Zr39   2.437   1_455  S
O31          C32   1.288       .  A
C32          C90   1.474       .  S
Zr33        O504   2.431   1_554  S
Zr33         O43   2.370       .  S
Zr33        O357   2.369       .  S
Zr33        O516   2.368   1_554  S
Zr33        O203   2.369   1_554  S
Zr33         O35   2.434       .  S
Zr33        O508   2.435       .  S
O34        Zr507   2.436   1_545  S
O34         H212   0.990       .  S
O34         H217   0.990       .  S
O35          H55   0.990       .  S
Zr36        O814   2.437   1_554  S
Zr36         O46   2.371       .  S
Zr36        O832   2.368   1_554  S
Zr36        O673   2.364       .  S
Zr36        O202   2.370   1_554  S
Zr36        O669   2.434       .  S
Zr36        O196   2.434       .  S
O37        Zr668   2.434   1_455  S
O37         H211   0.990   1_554  S
O38        Zr194   2.435       .  S
O38         H210   0.990       .  S
O38         H220   0.990       .  S
Zr39        O318   2.436       .  S
Zr39        O640   2.431       .  S
Zr39         O42   2.383   1_665  S
Zr39        O967   2.384       .  S
Zr39        O676   2.390   1_565  S
Zr39        O361   2.388   1_655  S
Zr40        O654   2.431       .  S
Zr40        O344   2.433       .  S
Zr40        O989   2.388       .  S
Zr40        O675   2.384       .  S
Zr40        O362   2.383       .  S
O41        Zr349   2.370   1_545  S
O41        Zr668   2.366   1_455  S
O41        Zr988   2.390   1_445  S
O41          H49   0.966       .  S
O42        Zr507   2.368   1_545  S
O42        Zr826   2.371   1_455  S
O43        Zr171   2.369   1_455  S
O43        Zr672   2.383   1_455  S
O44        Zr194   2.366       .  S
O44        Zr671   2.389   1_545  S
O44          H48   0.965       .  S
O45        Zr191   2.369       .  S
O45        Zr355   2.388   1_455  S
O45          H50   0.968       .  S
O46        Zr174   2.368   1_545  S
O46        Zr356   2.385   1_545  S
H51         O176   0.990       .  S
H52         O196   0.990       .  S
H53         O195   0.990       .  S
H54         O192   0.990       .  S
H56         O173   0.990       .  S
H58         O175   0.990       .  S
H59         O192   0.990       .  S
H60         O173   0.990       .  S
H62         O196   0.990       .  S
C63         C143   1.487       .  S
C63          C64   1.415       .  A
C63          C68   1.406       .  A
C64         C153   1.488       .  S
C64          C65   1.406       .  A
C65          C66   1.406       .  A
C65          H70   1.085       .  S
C66         C133   1.486       .  S
C66          C67   1.415       .  A
C67         C123   1.487       .  S
C67          C68   1.405       .  A
C68          H69   1.085       .  S
C71         C103   1.489       .  S
C71          C72   1.415       .  A
C71          C76   1.405       .  A
C72         C110   1.486       .  S
C72          C73   1.406       .  A
C73          C74   1.406       .  A
C73          H78   1.084       .  S
C74          C93   1.489       .  S
C74          C75   1.414       .  A
C75          C83   1.486       .  S
C75          C76   1.406       .  A
C76          H77   1.085       .  S
C79          C80   1.404       .  A
C79          C84   1.403       .  A
C79          H85   1.083       .  S
C80         C339   1.469       .  S
C80         C397   1.401       .  A
C81          C82   1.391       .  A
C81         C396   1.401   1_545  A
C81          H86   1.084       .  S
C82         C399   1.404   1_545  A
C82          H87   1.083       .  S
C83          C84   1.408       .  A
C83         C398   1.404       .  A
C84          H88   1.083       .  S
C89          C94   1.393       .  A
C89         C406   1.402       .  A
C89          H95   1.083       .  S
C90          C91   1.404   1_565  A
C90         C405   1.402       .  A
C91          C92   1.404       .  A
C91          H96   1.083       .  S
C92         C409   1.409   1_545  A
C92          H97   1.082       .  S
C93          C94   1.405       .  A
C93         C408   1.408       .  A
C94          H98   1.083       .  S
C99         C100   1.404       .  A
C99         C104   1.402       .  A
C99         H105   1.083       .  S
C100        C101   1.401       .  A
C101        C102   1.393       .  A
C101        H106   1.084       .  S
C102        C103   1.405       .  A
C102        H107   1.083       .  S
C103        C104   1.408       .  A
C104        H108   1.082       .  S
C109        C114   1.402       .  A
C109        C426   1.407   1_545  A
C109        H115   1.083       .  S
C110        C111   1.404       .  A
C110        C425   1.407       .  A
C111        C112   1.392       .  A
C111        H116   1.083       .  S
C112        C113   1.401       .  A
C112        H117   1.084       .  S
C113        C430   1.404       .  A
C114        C429   1.404   1_545  A
C114        H118   1.083       .  S
C119        C124   1.403       .  A
C119        C752   1.404   1_455  A
C119        H125   1.083       .  S
C120        C661   1.472       .  S
C120        C121   1.401       .  A
C120        C751   1.405       .  A
C121        C122   1.393       .  A
C121        H126   1.084       .  S
C122        C123   1.405       .  A
C122        H127   1.083       .  S
C123        C756   1.407       .  A
C124        C755   1.407   1_455  A
C124        H128   1.083       .  S
C129        C134   1.401       .  A
C129        C762   1.404       .  A
C129        H135   1.083       .  S
C130        C131   1.401       .  A
C130        C761   1.403   1_455  A
C131        C132   1.393       .  A
C131        H136   1.084       .  S
C132        C765   1.406   1_455  A
C132        H137   1.083       .  S
C133        C134   1.406       .  A
C133        C764   1.405       .  A
C134        H138   1.083       .  S
C139        C140   1.404       .  A
C139        C144   1.401       .  A
C139        H145   1.083       .  S
C140        C773   1.401       .  A
C141        C142   1.394       .  A
C141        C772   1.401       .  A
C141        H146   1.084       .  S
C142        C775   1.406   1_455  A
C142        H147   1.083       .  S
C143        C144   1.406       .  A
C143        C774   1.406       .  A
C144        H148   1.082       .  S
C149        C154   1.404       .  A
C149        C782   1.405   1_455  A
C149        H155   1.083       .  S
C150        C151   1.401       .  A
C150        C781   1.405       .  A
C151        C152   1.393       .  A
C151        H156   1.084       .  S
C152        C153   1.404       .  A
C152        H157   1.083       .  S
C153        C786   1.407       .  A
C154        C785   1.407   1_455  A
C154        H158   1.083       .  S
O159       Zr171   2.437   1_556  S
O159        C793   1.288       .  A
O160       Zr513   2.433       .  S
O160        C793   1.287       .  A
C161        O791   1.287       .  A
C161        O792   1.287       .  A
C161        C308   1.472       .  S
O162       Zr332   2.435       .  S
O162        C164   1.287       .  A
O163       Zr198   2.434       .  S
O163        C164   1.288       .  A
C164        C258   1.474       .  S
O165       Zr174   2.436   1_556  S
O165        C483   1.288       .  A
O166       Zr829   2.430       .  S
O166        C483   1.287       .  A
C167        O481   1.288       .  A
C167        O482   1.287       .  A
C167        C271   1.471       .  S
O168       Zr645   2.437       .  S
O168        C170   1.288       .  A
O169       Zr198   2.428       .  S
O169        C170   1.287       .  A
C170        C298   1.472       .  S
Zr171       O642   2.436   1_655  S
Zr171       O809   2.367   1_554  S
Zr171       O652   2.369       .  S
Zr171       O203   2.369   1_654  S
Zr171       O804   2.434       .  S
O172       Zr803   2.433       .  S
O172        H215   0.990   1_554  S
Zr174       O320   2.438       .  S
Zr174       O336   2.370       .  S
Zr174       O493   2.367   1_554  S
Zr174       O202   2.369   1_564  S
Zr174       O491   2.437       .  S
O175       Zr490   2.437       .  S
O175        H219   0.990       .  S
O177       Zr803   2.369   1_556  S
O177       Zr490   2.368   1_556  S
O177      Zr1145   2.384       .  S
O178       Zr645   2.368       .  S
O178       Zr332   2.370       .  S
O178       Zr198   2.386       .  S
O178        H205   0.965       .  S
O179       Zr191   2.432       .  S
O179        C497   1.287       .  A
O180       Zr830   2.432   1_455  S
O180        C497   1.287       .  A
C181        O495   1.287       .  A
C181        O496   1.287       .  A
C181        C554   1.471       .  S
O182       Zr668   2.437   1_456  S
O182        C184   1.287       .  A
O183       Zr197   2.425   1_545  S
O183        C184   1.286   1_655  A
C184        C288   1.470       .  S
O185       Zr194   2.434       .  S
O185        C819   1.287       .  A
O186       Zr514   2.436   1_545  S
O186        C819   1.288       .  A
C187        O817   1.288       .  A
C187        O818   1.288       .  A
C187        C910   1.474       .  S
O188       Zr349   2.433   1_556  S
O188        C190   1.287       .  A
O189       Zr197   2.436   1_455  S
O189        C190   1.288       .  A
C190        C248   1.473       .  S
Zr191       O346   2.436       .  S
Zr191       O515   2.371       .  S
Zr191       O358   2.369       .  S
Zr191       O201   2.372       .  S
Zr191       O350   2.435       .  S
Zr191       O193   2.435       .  S
O192       Zr349   2.436   1_545  S
O193        H213   0.990       .  S
Zr194       O656   2.437       .  S
Zr194       O674   2.370       .  S
Zr194       O831   2.367       .  S
Zr194       O204   2.369       .  S
Zr194       O827   2.434       .  S
O195       Zr826   2.434   1_455  S
Zr197       O476   2.435       .  S
Zr197       O798   2.431       .  S
Zr197      O1125   2.384       .  S
Zr197       O200   2.384   1_665  S
Zr197       O834   2.388   1_565  S
Zr197       O519   2.389   1_655  S
Zr198       O812   2.432       .  S
Zr198       O502   2.433       .  S
Zr198      O1147   2.389       .  S
Zr198       O833   2.384       .  S
Zr198       O520   2.383       .  S
O199       Zr507   2.370   1_545  S
O199       Zr826   2.365   1_455  S
O199      Zr1146   2.389   1_445  S
O199        H207   0.966       .  S
O200       Zr349   2.369   1_546  S
O200       Zr668   2.371   1_456  S
O201       Zr830   2.386   1_455  S
O202       Zr829   2.389   1_545  S
O202        H206   0.965       .  S
O203       Zr513   2.389   1_455  S
O203        H208   0.968       .  S
O204       Zr514   2.384   1_545  S
C221        C301   1.488       .  S
C221        C222   1.415       .  A
C221        C226   1.406       .  A
C222        C311   1.488       .  S
C222        C223   1.406       .  A
C223        C224   1.407       .  A
C223        H228   1.085       .  S
C224        C291   1.486       .  S
C224        C225   1.415       .  A
C225        C281   1.489       .  S
C225        C226   1.406       .  A
C226        H227   1.085       .  S
C229        C261   1.490       .  S
C229        C230   1.415       .  A
C229        C234   1.406       .  A
C230        C268   1.487       .  S
C230        C231   1.406       .  A
C231        C232   1.406       .  A
C231        H236   1.084       .  S
C232        C251   1.490       .  S
C232        C233   1.415       .  A
C233        C241   1.487       .  S
C233        C234   1.408       .  A
C234        H235   1.084       .  S
C237        C238   1.404       .  A
C237        C242   1.404       .  A
C237        H243   1.083       .  S
C238        C497   1.470       .  S
C238        C555   1.401       .  A
C239        C554   1.401   1_545  A
C239        C240   1.391       .  A
C239        H244   1.084       .  S
C240        C557   1.404   1_545  A
C240        H245   1.083       .  S
C241        C556   1.404       .  A
C241        C242   1.409       .  A
C242        H246   1.083       .  S
C247        C564   1.402       .  A
C247        C252   1.392       .  A
C247        H253   1.084       .  S
C248        C563   1.401       .  A
C248        C249   1.404   1_565  A
C249        C250   1.404       .  A
C249        H254   1.083       .  S
C250        C567   1.409   1_545  A
C250        H255   1.083       .  S
C251        C566   1.409       .  A
C251        C252   1.405       .  A
C252        H256   1.083       .  S
C257        C258   1.404       .  A
C257        C262   1.403       .  A
C257        H263   1.083       .  S
C258        C259   1.402       .  A
C259        C260   1.394       .  A
C259        H264   1.084       .  S
C260        C261   1.405       .  A
C260        H265   1.083       .  S
C261        C262   1.408       .  A
C262        H266   1.082       .  S
C267        C584   1.408   1_545  A
C267        C272   1.403       .  A
C267        H273   1.083       .  S
C268        C583   1.407       .  A
C268        C269   1.405       .  A
C269        C270   1.392       .  A
C269        H274   1.083       .  S
C270        C271   1.401       .  A
C270        H275   1.084       .  S
C271        C588   1.404       .  A
C272        C587   1.405   1_545  A
C272        H276   1.083       .  S
C277        C910   1.405   1_455  A
C277        C282   1.404       .  A
C277        H283   1.083       .  S
C278        C819   1.473       .  S
C278        C909   1.405       .  A
C278        C279   1.401       .  A
C279        C280   1.393       .  A
C279        H284   1.084       .  S
C280        C281   1.405       .  A
C280        H285   1.083       .  S
C281        C914   1.408       .  A
C282        C913   1.408   1_455  A
C282        H286   1.083       .  S
C287        C920   1.404       .  A
C287        C292   1.401       .  A
C287        H293   1.083       .  S
C288        C919   1.404   1_455  A
C288        C289   1.401       .  A
C289        C290   1.394       .  A
C289        H294   1.084       .  S
C290        C923   1.406   1_455  A
C290        H295   1.083       .  S
C291        C922   1.406       .  A
C291        C292   1.406       .  A
C292        H296   1.083       .  S
C297        C298   1.404       .  A
C297        C302   1.401       .  A
C297        H303   1.083       .  S
C298        C931   1.401       .  A
C299        C930   1.401       .  A
C299        C300   1.393       .  A
C299        H304   1.083       .  S
C300        C933   1.405   1_455  A
C300        H305   1.083       .  S
C301        C932   1.406       .  A
C301        C302   1.407       .  A
C302        H306   1.082       .  S
C307        C940   1.405   1_455  A
C307        C312   1.404       .  A
C307        H313   1.083       .  S
C308        C939   1.404       .  A
C308        C309   1.402       .  A
C309        C310   1.394       .  A
C309        H314   1.084       .  S
C310        C311   1.405       .  A
C310        H315   1.083       .  S
C311        C944   1.407       .  A
C312        C943   1.408   1_455  A
C312        H316   1.083       .  S
O317       Zr329   2.436       .  S
O317        C951   1.287       .  A
O318        C951   1.288       .  A
C319        O949   1.287       .  A
C319        O950   1.288       .  A
C319        C466   1.473       .  S
O320        C322   1.288       .  A
O321       Zr356   2.430       .  S
O321        C322   1.287       .  A
C322        C416   1.472       .  S
O323       Zr332   2.432       .  S
O324       Zr987   2.430       .  S
C325        C429   1.470       .  S
O326      Zr1119   2.436       .  S
O326        C328   1.288       .  A
O327       Zr356   2.426       .  S
O327        C328   1.286       .  A
C328        C456   1.470       .  S
Zr329      O1116   2.436   1_655  S
Zr329       O967   2.367       .  S
Zr329      O1126   2.369       .  S
Zr329       O517   2.370   1_655  S
Zr329       O361   2.368   1_655  S
Zr329       O962   2.433       .  S
Zr329       O489   2.435   1_655  S
O330       Zr961   2.434       .  S
O330        H373   0.990       .  S
O331       Zr487   2.435   1_456  S
O331        H530   0.990       .  S
O331        H534   0.990       .  S
Zr332       O360   2.369       .  S
Zr332       O520   2.366       .  S
Zr332       O492   2.434       .  S
O333        H532   0.990       .  S
O333        H377   0.990       .  S
O334       Zr490   2.435   1_556  S
O334        H525   0.990   1_556  S
O335       Zr961   2.369       .  S
O335       Zr671   2.385       .  S
O336      Zr1119   2.370       .  S
O336       Zr356   2.388       .  S
O336        H363   0.965       .  S
O337       Zr349   2.433       .  S
O338       Zr988   2.433   1_455  S
O340      Zr1142   2.437   1_455  S
O340        C342   1.288       .  A
O341       Zr355   2.424       .  S
O341        C342   1.286   1_655  A
C342        C446   1.469       .  S
O343       Zr352   2.435       .  S
O343        C977   1.288       .  A
O344        C977   1.287       .  A
C345        O975   1.287       .  A
C345        O976   1.288       .  A
C345       C1068   1.472       .  S
O346        C348   1.288       .  A
O347       Zr355   2.437   1_455  S
O347        C348   1.288       .  A
C348        C406   1.474       .  S
Zr349       O519   2.371   1_554  S
Zr349       O359   2.370       .  S
Zr349       O351   2.434       .  S
O350        H528   0.990       .  S
O350        H533   0.990       .  S
O351        H371   0.990   1_554  S
Zr352      O1130   2.436   1_554  S
Zr352      O1148   2.368   1_554  S
Zr352       O989   2.364       .  S
Zr352       O362   2.370       .  S
Zr352       O518   2.367   1_554  S
Zr352       O985   2.434       .  S
Zr352       O512   2.433   1_554  S
O353       Zr984   2.433   1_455  S
O353        H527   0.990   1_554  S
O354       Zr510   2.435       .  S
O354        H526   0.990       .  S
O354        H536   0.990       .  S
Zr355       O956   2.431       .  S
Zr355       O651   2.385       .  S
Zr355       O358   2.383   1_655  S
Zr355       O992   2.389       .  S
Zr356       O970   2.434       .  S
Zr356       O673   2.388   1_565  S
Zr356       O991   2.384       .  S
O357       Zr984   2.365   1_455  S
O357       Zr672   2.388   1_455  S
O357        H365   0.966       .  S
O358      Zr1142   2.371   1_455  S
O359       Zr487   2.370   1_455  S
O359       Zr988   2.385   1_455  S
O360       Zr510   2.367       .  S
O360       Zr987   2.388       .  S
O360        H364   0.965       .  S
O361       Zr507   2.370       .  S
O361        H366   0.968       .  S
O362       Zr490   2.366       .  S
H367        O492   0.990       .  S
H368        O512   0.990   1_554  S
H369        O511   0.990       .  S
H370        O508   0.990       .  S
H372        O489   0.990       .  S
H374        O491   0.990       .  S
H375        O508   0.990       .  S
H376        O489   0.990       .  S
H378        O512   0.990   1_554  S
C379        C459   1.486       .  S
C379        C380   1.415       .  A
C379        C384   1.406       .  A
C380        C469   1.487       .  S
C380        C381   1.405       .  A
C381        C382   1.405       .  A
C381        H386   1.085       .  S
C382        C449   1.485       .  S
C382        C383   1.414       .  A
C383        C439   1.487       .  S
C383        C384   1.405       .  A
C384        H385   1.085       .  S
C387        C419   1.489       .  S
C387        C388   1.415       .  A
C387        C392   1.406       .  A
C388        C426   1.487       .  S
C388        C389   1.406       .  A
C389        C390   1.406       .  A
C389        H394   1.084       .  S
C390        C409   1.490       .  S
C390        C391   1.414       .  A
C391        C399   1.486       .  S
C391        C392   1.407       .  A
C392        H393   1.085       .  S
C395        C396   1.404       .  A
C395        C400   1.403       .  A
C395        H401   1.083       .  S
C397        C398   1.391       .  A
C397        H402   1.084       .  S
C398        H403   1.083       .  S
C399        C400   1.408       .  A
C400        H404   1.083       .  S
C405        C410   1.393       .  A
C405        H411   1.084       .  S
C406        C407   1.404       .  A
C407        C408   1.403       .  A
C407        H412   1.083       .  S
C408        H413   1.083       .  S
C409        C410   1.405       .  A
C410        H414   1.083       .  S
C415        C416   1.404       .  A
C415        C420   1.402       .  A
C415        H421   1.083       .  S
C416        C417   1.401   1_565  A
C417        C418   1.393       .  A
C417        H422   1.084       .  S
C418        C419   1.405   1_545  A
C418        H423   1.083       .  S
C419        C420   1.408       .  A
C420        H424   1.083       .  S
C425        C430   1.402       .  A
C425        H431   1.083       .  S
C426        C427   1.405       .  A
C427        C428   1.392       .  A
C427        H432   1.083       .  S
C428        C429   1.401       .  A
C428        H433   1.084       .  S
C430        H434   1.083       .  S
C435       C1068   1.404   1_455  A
C435        C440   1.403       .  A
C435        H441   1.083       .  S
C436        C977   1.472       .  S
C436       C1067   1.405       .  A
C436        C437   1.401       .  A
C437        C438   1.393       .  A
C437        H442   1.084       .  S
C438        C439   1.405       .  A
C438        H443   1.083       .  S
C439       C1072   1.407       .  A
C440       C1071   1.407   1_455  A
C440        H444   1.083       .  S
C445       C1078   1.404       .  A
C445        C450   1.401       .  A
C445        H451   1.083       .  S
C446       C1077   1.404   1_455  A
C446        C447   1.401       .  A
C447        C448   1.393       .  A
C447        H452   1.084       .  S
C448       C1081   1.406   1_455  A
C448        H453   1.083       .  S
C449       C1080   1.405       .  A
C449        C450   1.406       .  A
C450        H454   1.083       .  S
C455        C456   1.404       .  A
C455        C460   1.401       .  A
C455        H461   1.083       .  S
C456       C1089   1.401       .  A
C457       C1088   1.401       .  A
C457        C458   1.394       .  A
C457        H462   1.084       .  S
C458       C1091   1.406       .  A
C458        H463   1.083       .  S
C459       C1090   1.405       .  A
C459        C460   1.407       .  A
C460        H464   1.082       .  S
C465       C1098   1.405   1_455  A
C465        C470   1.404       .  A
C465        H471   1.083       .  S
C466       C1097   1.405       .  A
C466        C467   1.401       .  A
C467        C468   1.392       .  A
C467        H472   1.084       .  S
C468        C469   1.404       .  A
C468        H473   1.083       .  S
C469       C1102   1.408       .  A
C470       C1101   1.407   1_455  A
C470        H474   1.083       .  S
O475       Zr487   2.437   1_556  S
O475       C1109   1.287       .  A
O476       C1109   1.288       .  A
C477       O1107   1.288       .  A
C477       O1108   1.288       .  A
C477        C624   1.474       .  S
O478        C480   1.287       .  A
O479       Zr514   2.432       .  S
O479        C480   1.287       .  A
C480        C574   1.474       .  S
O481       Zr490   2.434   1_556  S
O482      Zr1145   2.430       .  S
C483        C587   1.472       .  S
O484       Zr961   2.435       .  S
O484        C486   1.287       .  A
O485       Zr514   2.427       .  S
O485        C486   1.286       .  A
C486        C614   1.471       .  S
Zr487       O958   2.437   1_655  S
Zr487      O1125   2.367   1_554  S
Zr487       O968   2.370       .  S
Zr487       O519   2.368   1_654  S
Zr487      O1120   2.435       .  S
O488      Zr1119   2.433       .  S
O488        H531   0.990   1_554  S
Zr490       O518   2.368   1_554  S
O491        H535   0.990       .  S
O493      Zr1119   2.367   1_556  S
O493       Zr829   2.383       .  S
O494       Zr961   2.370       .  S
O494       Zr514   2.387       .  S
O494        H521   0.965       .  S
O495       Zr507   2.434       .  S
O496      Zr1146   2.431   1_455  S
O498       Zr984   2.437   1_456  S
O498        C500   1.288       .  A
O499       Zr513   2.426       .  S
O499        C500   1.286   1_655  A
C500        C604   1.471       .  S
O501       Zr510   2.433       .  S
O501       C1135   1.287       .  A
O502       C1135   1.287       .  A
C503       O1133   1.287       .  A
C503       O1134   1.288       .  A
C503       C1226   1.473       .  S
O504        C506   1.287       .  A
O505       Zr513   2.437   1_455  S
O505        C506   1.288       .  A
C506        C564   1.474       .  S
Zr507       O517   2.371       .  S
Zr507       O509   2.435       .  S
O509        H529   0.990       .  S
Zr510       O972   2.435       .  S
Zr510       O990   2.370       .  S
Zr510      O1147   2.366       .  S
Zr510       O520   2.369       .  S
Zr510      O1143   2.434       .  S
O511      Zr1142   2.434   1_455  S
Zr513      O1114   2.430       .  S
Zr513       O809   2.385       .  S
Zr513       O516   2.381   1_655  S
Zr513      O1150   2.388       .  S
Zr514      O1128   2.431       .  S
Zr514       O831   2.388   1_565  S
Zr514      O1149   2.385       .  S
O515      Zr1142   2.365   1_455  S
O515       Zr830   2.389   1_455  S
O515        H523   0.966       .  S
O516       Zr984   2.369   1_456  S
O517      Zr1146   2.385   1_455  S
O518      Zr1145   2.386       .  S
O518        H522   0.965       .  S
O519        H524   0.968       .  S
C537        C617   1.487       .  S
C537        C538   1.415       .  A
C537        C542   1.407       .  A
C538        C627   1.489       .  S
C538        C539   1.406       .  A
C539        C540   1.406       .  A
C539        H544   1.085       .  S
C540        C607   1.486       .  S
C540        C541   1.415       .  A
C541        C597   1.488       .  S
C541        C542   1.406       .  A
C542        H543   1.085       .  S
C545        C577   1.491       .  S
C545        C546   1.415       .  A
C545        C550   1.406       .  A
C546        C584   1.488       .  S
C546        C547   1.407       .  A
C547        C548   1.407       .  A
C547        H552   1.084       .  S
C548        C567   1.490       .  S
C548        C549   1.415       .  A
C549        C557   1.488       .  S
C549        C550   1.407       .  A
C550        H551   1.084       .  S
C553        C554   1.404       .  A
C553        C558   1.404       .  A
C553        H559   1.083       .  S
C555        C556   1.391       .  A
C555        H560   1.084       .  S
C556        H561   1.083       .  S
C557        C558   1.409       .  A
C558        H562   1.083       .  S
C563        C568   1.393       .  A
C563        H569   1.084       .  S
C564        C565   1.405       .  A
C565        C566   1.404       .  A
C565        H570   1.083       .  S
C566        H571   1.082       .  S
C567        C568   1.405       .  A
C568        H572   1.083       .  S
C573        C574   1.404       .  A
C573        C578   1.403       .  A
C573        H579   1.083       .  S
C574        C575   1.402   1_565  A
C575        C576   1.394       .  A
C575        H580   1.084       .  S
C576        C577   1.405   1_545  A
C576        H581   1.083       .  S
C577        C578   1.408       .  A
C578        H582   1.082       .  S
C583        C588   1.403       .  A
C583        H589   1.083       .  S
C584        C585   1.405       .  A
C585        C586   1.393       .  A
C585        H590   1.083       .  S
C586        C587   1.401       .  A
C586        H591   1.084       .  S
C588        H592   1.083       .  S
C593       C1226   1.405   1_455  A
C593        C598   1.404       .  A
C593        H599   1.083       .  S
C594       C1135   1.472       .  S
C594       C1225   1.405       .  A
C594        C595   1.401       .  A
C595        C596   1.393       .  A
C595        H600   1.084       .  S
C596        C597   1.405       .  A
C596        H601   1.083       .  S
C597       C1230   1.408       .  A
C598       C1229   1.408   1_455  A
C598        H602   1.083       .  S
C603       C1236   1.404       .  A
C603        C608   1.401       .  A
C603        H609   1.083       .  S
C604       C1235   1.404   1_455  A
C604        C605   1.401       .  A
C605        C606   1.394       .  A
C605        H610   1.084       .  S
C606       C1239   1.406   1_455  A
C606        H611   1.083       .  S
C607       C1238   1.405       .  A
C607        C608   1.406       .  A
C608        H612   1.083       .  S
C613        C614   1.404       .  A
C613        C618   1.400       .  A
C613        H619   1.083       .  S
C614       C1247   1.401       .  A
C615       C1246   1.401       .  A
C615        C616   1.394       .  A
C615        H620   1.084       .  S
C616       C1249   1.406       .  A
C616        H621   1.083       .  S
C617       C1248   1.406       .  A
C617        C618   1.407       .  A
C618        H622   1.082       .  S
C623       C1256   1.405   1_455  A
C623        C628   1.404       .  A
C623        H629   1.083       .  S
C624       C1255   1.405       .  A
C624        C625   1.402       .  A
C625        C626   1.394       .  A
C625        H630   1.084       .  S
C626        C627   1.405       .  A
C626        H631   1.083       .  S
C627       C1260   1.407       .  A
C628       C1259   1.407   1_455  A
C628        H632   1.083       .  S
O633       Zr645   2.435       .  S
O634       Zr987   2.435       .  S
C635        C782   1.473       .  S
O636      Zr1122   2.434       .  S
O636        C638   1.287       .  A
O637       Zr672   2.433       .  S
O637        C638   1.288       .  A
C638        C732   1.472       .  S
O639       Zr648   2.431       .  S
O639        C957   1.287       .  A
O640        C957   1.287       .  A
C641        O955   1.287       .  A
C641        O956   1.287       .  A
C641        C745   1.471       .  S
O642        C644   1.287   1_455  A
O643       Zr672   2.427       .  S
O643        C644   1.286       .  A
C644        C772   1.471   1_655  S
Zr645       O833   2.369       .  S
Zr645       O677   2.368       .  S
Zr645       O805   2.436       .  S
O646        H689   0.990       .  S
O647       Zr803   2.435   1_556  S
O647        H846   0.990       .  S
O647        H850   0.990       .  S
Zr648      O1110   2.436       .  S
Zr648      O1126   2.369       .  S
Zr648       O967   2.369       .  S
Zr648       O676   2.369   1_565  S
Zr648       O836   2.367   1_565  S
Zr648       O965   2.436       .  S
Zr648       O808   2.435   1_565  S
O649       Zr964   2.436       .  S
O649        H848   0.990       .  S
O649        H693   0.990       .  S
O650       Zr806   2.435   1_546  S
O650        H841   0.990   1_556  S
O651       Zr964   2.368       .  S
O652      Zr1122   2.370       .  S
O652       Zr672   2.388       .  S
O652        H679   0.965       .  S
O653       Zr665   2.434       .  S
O653        C971   1.287       .  A
O654        C971   1.287       .  A
C655        O969   1.287       .  A
C655        O970   1.287       .  A
C655       C1028   1.469       .  S
O656        C658   1.287       .  A
O657       Zr671   2.428   1_545  S
O657        C658   1.287       .  A
C658        C762   1.471       .  S
O659       Zr668   2.434       .  S
O660       Zr988   2.434   1_545  S
O662      Zr1139   2.431       .  S
O662        C664   1.287       .  A
O663       Zr671   2.435       .  S
O663        C664   1.288       .  A
C664        C722   1.472       .  S
Zr665      O1136   2.432   1_554  S
Zr665       O989   2.369       .  S
Zr665      O1148   2.369   1_554  S
Zr665       O835   2.369   1_554  S
Zr665       O675   2.369       .  S
Zr665      O1140   2.435       .  S
Zr665       O667   2.434       .  S
O666      Zr1139   2.434   1_545  S
O666        H844   0.990       .  S
O666        H849   0.990       .  S
O667        H687   0.990       .  S
Zr668       O678   2.369       .  S
Zr668       O834   2.367   1_554  S
Zr668       O828   2.434       .  S
O669        H843   0.990   1_554  S
O670       Zr826   2.434       .  S
O670        H842   0.990       .  S
O670        H852   0.990       .  S
Zr671       O950   2.436       .  S
Zr671       O674   2.383   1_565  S
Zr671       O993   2.389       .  S
Zr672       O976   2.434       .  S
Zr672       O994   2.384       .  S
O673       Zr981   2.370   1_545  S
O673        H681   0.966       .  S
O674      Zr1139   2.369   1_545  S
O675       Zr803   2.368       .  S
O676       Zr826   2.367       .  S
O676        H680   0.965       .  S
O677       Zr823   2.369       .  S
O677       Zr987   2.388       .  S
O677        H682   0.968       .  S
O678       Zr806   2.368   1_545  S
O678       Zr988   2.384   1_545  S
H683        O808   0.990       .  S
H684        O828   0.990       .  S
H685        O827   0.990       .  S
H686        O824   0.990       .  S
H688        O805   0.990       .  S
H690        O807   0.990       .  S
H691        O824   0.990       .  S
H692        O805   0.990       .  S
H694        O828   0.990       .  S
C695        C775   1.486       .  S
C695        C696   1.415       .  A
C695        C700   1.406       .  A
C696        C785   1.488       .  S
C696        C697   1.405       .  A
C697        C698   1.406       .  A
C697        H702   1.085       .  S
C698        C765   1.486       .  S
C698        C699   1.415       .  A
C699        C755   1.487       .  S
C699        C700   1.405       .  A
C700        H701   1.085       .  S
C703        C735   1.489       .  S
C703        C704   1.415       .  A
C703        C708   1.406       .  A
C704        C742   1.488       .  S
C704        C705   1.407       .  A
C705        C706   1.406       .  A
C705        H710   1.084       .  S
C706        C725   1.490       .  S
C706        C707   1.414       .  A
C707        C715   1.486       .  S
C707        C708   1.407       .  A
C708        H709   1.085       .  S
C711        C712   1.404       .  A
C711        C716   1.403       .  A
C711        H717   1.083       .  S
C712        C971   1.470       .  S
C712       C1029   1.401       .  A
C713       C1028   1.401   1_545  A
C713        C714   1.391       .  A
C713        H718   1.084       .  S
C714       C1031   1.404   1_545  A
C714        H719   1.083       .  S
C715       C1030   1.404       .  A
C715        C716   1.408       .  A
C716        H720   1.083       .  S
C721       C1038   1.401       .  A
C721        C726   1.393       .  A
C721        H727   1.084       .  S
C722       C1037   1.401       .  A
C722        C723   1.404   1_565  A
C723        C724   1.404       .  A
C723        H728   1.083       .  S
C724       C1041   1.408   1_545  A
C724        H729   1.083       .  S
C725       C1040   1.409       .  A
C725        C726   1.405       .  A
C726        H730   1.083       .  S
C731        C732   1.404       .  A
C731        C736   1.403       .  A
C731        H737   1.083       .  S
C732        C733   1.401       .  A
C733        C734   1.393       .  A
C733        H738   1.084       .  S
C734        C735   1.405       .  A
C734        H739   1.083       .  S
C735        C736   1.408       .  A
C736        H740   1.083       .  S
C741       C1058   1.407   1_545  A
C741        C746   1.402       .  A
C741        H747   1.083       .  S
C742       C1057   1.408       .  A
C742        C743   1.405       .  A
C743        C744   1.392       .  A
C743        H748   1.083       .  S
C744        C745   1.401       .  A
C744        H749   1.084       .  S
C745       C1062   1.404       .  A
C746       C1061   1.404   1_545  A
C746        H750   1.083       .  S
C751        C756   1.404       .  A
C751        H757   1.083       .  S
C752        C753   1.401       .  A
C753        C754   1.393       .  A
C753        H758   1.084       .  S
C754        C755   1.405       .  A
C754        H759   1.083       .  S
C756        H760   1.083       .  S
C761        C766   1.400       .  A
C761        H767   1.083       .  S
C762        C763   1.401       .  A
C763        C764   1.394       .  A
C763        H768   1.084       .  S
C764        H769   1.083       .  S
C765        C766   1.406       .  A
C766        H770   1.082       .  S
C771        C772   1.404   1_655  A
C771        C776   1.401       .  A
C771        H777   1.083       .  S
C773        C774   1.394       .  A
C773        H778   1.084       .  S
C774        H779   1.083       .  S
C775        C776   1.406       .  A
C776        H780   1.082       .  S
C781        C786   1.404       .  A
C781        H787   1.083       .  S
C782        C783   1.402       .  A
C783        C784   1.394       .  A
C783        H788   1.084       .  S
C784        C785   1.405       .  A
C784        H789   1.083       .  S
C786        H790   1.083       .  S
O791       Zr803   2.436   1_556  S
O792      Zr1145   2.432       .  S
C793        C940   1.473       .  S
O794       Zr964   2.436       .  S
O794        C796   1.287       .  A
O795       Zr830   2.434       .  S
O795        C796   1.287       .  A
C796        C890   1.474       .  S
O797       Zr806   2.433   1_556  S
O797       C1115   1.287       .  A
O798       C1115   1.287       .  A
C799       O1113   1.287       .  A
C799       O1114   1.287       .  A
C799        C903   1.470       .  S
O800        C802   1.288   1_455  A
O801       Zr830   2.426       .  S
O801        C802   1.286       .  A
C802        C930   1.472   1_655  S
Zr803       O835   2.366   1_554  S
O804        H847   0.990   1_554  S
Zr806       O952   2.434       .  S
Zr806       O968   2.371       .  S
Zr806      O1125   2.366   1_554  S
Zr806       O834   2.369   1_564  S
Zr806      O1123   2.435       .  S
O807      Zr1122   2.437       .  S
O807        H851   0.990       .  S
O809      Zr1122   2.366   1_556  S
O810       Zr964   2.369       .  S
O810       Zr830   2.386       .  S
O810        H837   0.965       .  S
O811       Zr823   2.434       .  S
O811       C1129   1.287       .  A
O812       C1129   1.287       .  A
C813       O1127   1.287       .  A
C813       O1128   1.287       .  A
C813       C1186   1.469       .  S
O814        C816   1.288       .  A
O815       Zr829   2.428   1_545  S
O815        C816   1.287       .  A
C816        C920   1.471       .  S
O817       Zr826   2.436       .  S
O818      Zr1146   2.435   1_545  S
O820       Zr981   2.431   1_556  S
O820        C822   1.287       .  A
O821       Zr829   2.436       .  S
O821        C822   1.288       .  A
C822        C880   1.473       .  S
Zr823       O978   2.436       .  S
Zr823      O1147   2.369       .  S
Zr823       O990   2.370       .  S
Zr823       O833   2.370       .  S
Zr823       O982   2.435       .  S
Zr823       O825   2.434       .  S
O824       Zr981   2.434   1_545  S
O825        H845   0.990       .  S
Zr826       O836   2.369       .  S
Zr829      O1108   2.436       .  S
Zr829       O832   2.381   1_565  S
Zr829      O1151   2.388       .  S
Zr830      O1134   2.434       .  S
Zr830      O1152   2.384       .  S
O831      Zr1139   2.368   1_545  S
O831        H839   0.966       .  S
O832       Zr981   2.368   1_546  S
O834        H838   0.965       .  S
O835      Zr1145   2.388       .  S
O835        H840   0.968       .  S
O836      Zr1146   2.384   1_545  S
C853        C933   1.487       .  S
C853        C854   1.415       .  A
C853        C858   1.406       .  A
C854        C943   1.488       .  S
C854        C855   1.407       .  A
C855        C856   1.407       .  A
C855        H860   1.085       .  S
C856        C923   1.487       .  S
C856        C857   1.416       .  A
C857        C913   1.490       .  S
C857        C858   1.406       .  A
C858        H859   1.085       .  S
C861        C893   1.491       .  S
C861        C862   1.415       .  A
C861        C866   1.406       .  A
C862        C900   1.487       .  S
C862        C863   1.406       .  A
C863        C864   1.406       .  A
C863        H868   1.084       .  S
C864        C883   1.490       .  S
C864        C865   1.415       .  A
C865        C873   1.488       .  S
C865        C866   1.407       .  A
C866        H867   1.084       .  S
C869        C870   1.404       .  A
C869        C874   1.404       .  A
C869        H875   1.083       .  S
C870       C1129   1.471       .  S
C870       C1187   1.401       .  A
C871       C1186   1.401   1_545  A
C871        C872   1.391       .  A
C871        H876   1.084       .  S
C872       C1189   1.404   1_545  A
C872        H877   1.083       .  S
C873       C1188   1.404       .  A
C873        C874   1.408       .  A
C874        H878   1.083       .  S
C879       C1196   1.402       .  A
C879        C884   1.393       .  A
C879        H885   1.084       .  S
C880       C1195   1.401       .  A
C880        C881   1.404   1_565  A
C881        C882   1.404       .  A
C881        H886   1.083       .  S
C882       C1199   1.408   1_545  A
C882        H887   1.083       .  S
C883       C1198   1.408       .  A
C883        C884   1.405       .  A
C884        H888   1.083       .  S
C889        C890   1.405       .  A
C889        C894   1.403       .  A
C889        H895   1.083       .  S
C890        C891   1.402       .  A
C891        C892   1.393       .  A
C891        H896   1.084       .  S
C892        C893   1.405       .  A
C892        H897   1.083       .  S
C893        C894   1.408       .  A
C894        H898   1.082       .  S
C899       C1216   1.407   1_545  A
C899        C904   1.403       .  A
C899        H905   1.083       .  S
C900       C1215   1.407       .  A
C900        C901   1.405       .  A
C901        C902   1.392       .  A
C901        H906   1.083       .  S
C902        C903   1.401       .  A
C902        H907   1.084       .  S
C903       C1220   1.404       .  A
C904       C1219   1.404   1_545  A
C904        H908   1.083       .  S
C909        C914   1.404       .  A
C909        H915   1.083       .  S
C910        C911   1.401       .  A
C911        C912   1.393       .  A
C911        H916   1.084       .  S
C912        C913   1.405       .  A
C912        H917   1.083       .  S
C914        H918   1.083       .  S
C919        C924   1.401       .  A
C919        H925   1.083       .  S
C920        C921   1.401       .  A
C921        C922   1.394       .  A
C921        H926   1.084       .  S
C922        H927   1.083       .  S
C923        C924   1.406       .  A
C924        H928   1.083       .  S
C929        C930   1.405   1_655  A
C929        C934   1.401       .  A
C929        H935   1.083       .  S
C931        C932   1.394       .  A
C931        H936   1.083       .  S
C932        H937   1.083       .  S
C933        C934   1.407       .  A
C934        H938   1.082       .  S
C939        C944   1.404       .  A
C939        H945   1.083       .  S
C940        C941   1.402       .  A
C941        C942   1.394       .  A
C941        H946   1.084       .  S
C942        C943   1.404       .  A
C942        H947   1.083       .  S
C944        H948   1.083       .  S
O949       Zr961   2.435       .  S
C951       C1098   1.473       .  S
O952        C954   1.287       .  A
O953       Zr988   2.435       .  S
O953        C954   1.288       .  A
C954       C1048   1.473       .  S
O955       Zr964   2.431       .  S
C957       C1061   1.469       .  S
O958        C960   1.288       .  A
O959       Zr988   2.427       .  S
O959        C960   1.286   1_655  A
C960       C1088   1.471       .  S
Zr961      O1149   2.369       .  S
Zr961       O993   2.368       .  S
Zr961      O1121   2.437       .  S
O962       H1005   0.990       .  S
O963      Zr1119   2.435   1_556  S
O963       H1162   0.990       .  S
O963       H1166   0.990       .  S
Zr964       O992   2.369       .  S
Zr964      O1152   2.366       .  S
Zr964      O1124   2.434       .  S
O965       H1164   0.990       .  S
O965       H1009   0.990       .  S
O966      Zr1122   2.434   1_556  S
O966       H1157   0.990   1_556  S
O968       Zr988   2.389       .  S
O968        H995   0.965       .  S
O969       Zr981   2.432       .  S
O972        C974   1.287       .  A
O973       Zr987   2.427       .  S
O973        C974   1.286       .  A
C974       C1078   1.469       .  S
O975       Zr984   2.433       .  S
O978        C980   1.288       .  A
O979       Zr987   2.434       .  S
O979        C980   1.288       .  A
C980       C1038   1.473       .  S
Zr981      O1151   2.369   1_554  S
Zr981       O991   2.369       .  S
Zr981       O983   2.434       .  S
O982       H1160   0.990       .  S
O982       H1165   0.990       .  S
O983       H1003   0.990       .  S
Zr984       O994   2.370       .  S
Zr984      O1150   2.368   1_554  S
Zr984      O1144   2.434       .  S
O985       H1159   0.990   1_554  S
O986      Zr1142   2.435       .  S
O986       H1158   0.990       .  S
O986       H1168   0.990       .  S
Zr987       O990   2.383       .  S
O989        H997   0.966       .  S
O991      Zr1119   2.370       .  S
O992      Zr1142   2.366       .  S
O992        H996   0.965       .  S
O993      Zr1139   2.368       .  S
O993        H998   0.968       .  S
O994      Zr1122   2.367       .  S
H999       O1124   0.990       .  S
H1000      O1144   0.990       .  S
H1001      O1143   0.990       .  S
H1002      O1140   0.990       .  S
H1004      O1121   0.990       .  S
H1006      O1123   0.990       .  S
H1007      O1140   0.990       .  S
H1008      O1121   0.990       .  S
H1010      O1144   0.990       .  S
C1011      C1091   1.487   1_655  S
C1011      C1012   1.415       .  A
C1011      C1016   1.406       .  A
C1012      C1101   1.487       .  S
C1012      C1013   1.405       .  A
C1013      C1014   1.406       .  A
C1013      H1018   1.085       .  S
C1014      C1081   1.486       .  S
C1014      C1015   1.415       .  A
C1015      C1071   1.487       .  S
C1015      C1016   1.405       .  A
C1016      H1017   1.085       .  S
C1019      C1051   1.490       .  S
C1019      C1020   1.415       .  A
C1019      C1024   1.406       .  A
C1020      C1058   1.486       .  S
C1020      C1021   1.406       .  A
C1021      C1022   1.405       .  A
C1021      H1026   1.085       .  S
C1022      C1041   1.489       .  S
C1022      C1023   1.414       .  A
C1023      C1031   1.486       .  S
C1023      C1024   1.407       .  A
C1024      H1025   1.084       .  S
C1027      C1028   1.404       .  A
C1027      C1032   1.403       .  A
C1027      H1033   1.083       .  S
C1029      C1030   1.391       .  A
C1029      H1034   1.084       .  S
C1030      H1035   1.083       .  S
C1031      C1032   1.408       .  A
C1032      H1036   1.083       .  S
C1037      C1042   1.392       .  A
C1037      H1043   1.084       .  S
C1038      C1039   1.404       .  A
C1039      C1040   1.404       .  A
C1039      H1044   1.083       .  S
C1040      H1045   1.083       .  S
C1041      C1042   1.405       .  A
C1042      H1046   1.083       .  S
C1047      C1048   1.404       .  A
C1047      C1052   1.403       .  A
C1047      H1053   1.083       .  S
C1048      C1049   1.402   1_565  A
C1049      C1050   1.394       .  A
C1049      H1054   1.084       .  S
C1050      C1051   1.406   1_545  A
C1050      H1055   1.083       .  S
C1051      C1052   1.408       .  A
C1052      H1056   1.082       .  S
C1057      C1062   1.403       .  A
C1057      H1063   1.083       .  S
C1058      C1059   1.405       .  A
C1059      C1060   1.392       .  A
C1059      H1064   1.083       .  S
C1060      C1061   1.401       .  A
C1060      H1065   1.084       .  S
C1062      H1066   1.083       .  S
C1067      C1072   1.403       .  A
C1067      H1073   1.083       .  S
C1068      C1069   1.402       .  A
C1069      C1070   1.393       .  A
C1069      H1074   1.084       .  S
C1070      C1071   1.405       .  A
C1070      H1075   1.083       .  S
C1072      H1076   1.083       .  S
C1077      C1082   1.401       .  A
C1077      H1083   1.083       .  S
C1078      C1079   1.401       .  A
C1079      C1080   1.393       .  A
C1079      H1084   1.084       .  S
C1080      H1085   1.083       .  S
C1081      C1082   1.407       .  A
C1082      H1086   1.082       .  S
C1087      C1088   1.404   1_655  A
C1087      C1092   1.401       .  A
C1087      H1093   1.083       .  S
C1089      C1090   1.393       .  A
C1089      H1094   1.084       .  S
C1090      H1095   1.083       .  S
C1091      C1092   1.406   1_455  A
C1092      H1096   1.082       .  S
C1097      C1102   1.404       .  A
C1097      H1103   1.083       .  S
C1098      C1099   1.401       .  A
C1099      C1100   1.393       .  A
C1099      H1104   1.084       .  S
C1100      C1101   1.404       .  A
C1100      H1105   1.083       .  S
C1102      H1106   1.083       .  S
O1107     Zr1119   2.438   1_556  S
C1109      C1256   1.474       .  S
O1110      C1112   1.287       .  A
O1111     Zr1146   2.432       .  S
O1111      C1112   1.287       .  A
C1112      C1206   1.473       .  S
O1113     Zr1122   2.433   1_556  S
C1115      C1219   1.471       .  S
O1116      C1118   1.287       .  A
O1117     Zr1146   2.427       .  S
O1117      C1118   1.286   1_655  A
C1118      C1246   1.472       .  S
Zr1119     O1151   2.367   1_554  S
O1120      H1163   0.990   1_554  S
Zr1122     O1150   2.369   1_554  S
O1123      H1167   0.990       .  S
O1126     Zr1146   2.387       .  S
O1126      H1153   0.965       .  S
O1127     Zr1139   2.430       .  S
O1130      C1132   1.288       .  A
O1131     Zr1145   2.426       .  S
O1131      C1132   1.286       .  A
C1132      C1236   1.470       .  S
O1133     Zr1142   2.435       .  S
O1136      C1138   1.287       .  A
O1137     Zr1145   2.436       .  S
O1137      C1138   1.288       .  A
C1138      C1196   1.473       .  S
Zr1139     O1149   2.370       .  S
Zr1139     O1141   2.435       .  S
O1141      H1161   0.990       .  S
Zr1142     O1152   2.369       .  S
Zr1145     O1148   2.382       .  S
O1147      H1155   0.966       .  S
O1150      H1154   0.965       .  S
O1151      H1156   0.968       .  S
C1169      C1249   1.488   1_655  S
C1169      C1170   1.415       .  A
C1169      C1174   1.406       .  A
C1170      C1259   1.488       .  S
C1170      C1171   1.406       .  A
C1171      C1172   1.406       .  A
C1171      H1176   1.085       .  S
C1172      C1239   1.487       .  S
C1172      C1173   1.415       .  A
C1173      C1229   1.489       .  S
C1173      C1174   1.406       .  A
C1174      H1175   1.085       .  S
C1177      C1209   1.491       .  S
C1177      C1178   1.415       .  A
C1177      C1182   1.407       .  A
C1178      C1216   1.487       .  S
C1178      C1179   1.406       .  A
C1179      C1180   1.406       .  A
C1179      H1184   1.084       .  S
C1180      C1199   1.490       .  S
C1180      C1181   1.415       .  A
C1181      C1189   1.488       .  S
C1181      C1182   1.408       .  A
C1182      H1183   1.084       .  S
C1185      C1186   1.404       .  A
C1185      C1190   1.403       .  A
C1185      H1191   1.083       .  S
C1187      C1188   1.391       .  A
C1187      H1192   1.084       .  S
C1188      H1193   1.083       .  S
C1189      C1190   1.409       .  A
C1190      H1194   1.083       .  S
C1195      C1200   1.392       .  A
C1195      H1201   1.084       .  S
C1196      C1197   1.404       .  A
C1197      C1198   1.404       .  A
C1197      H1202   1.083       .  S
C1198      H1203   1.082       .  S
C1199      C1200   1.405       .  A
C1200      H1204   1.083       .  S
C1205      C1206   1.404       .  A
C1205      C1210   1.403       .  A
C1205      H1211   1.083       .  S
C1206      C1207   1.402   1_565  A
C1207      C1208   1.393       .  A
C1207      H1212   1.084       .  S
C1208      C1209   1.405   1_545  A
C1208      H1213   1.083       .  S
C1209      C1210   1.408       .  A
C1210      H1214   1.082       .  S
C1215      C1220   1.403       .  A
C1215      H1221   1.083       .  S
C1216      C1217   1.405       .  A
C1217      C1218   1.392       .  A
C1217      H1222   1.083       .  S
C1218      C1219   1.401       .  A
C1218      H1223   1.084       .  S
C1220      H1224   1.083       .  S
C1225      C1230   1.404       .  A
C1225      H1231   1.083       .  S
C1226      C1227   1.401       .  A
C1227      C1228   1.393       .  A
C1227      H1232   1.084       .  S
C1228      C1229   1.405       .  A
C1228      H1233   1.083       .  S
C1230      H1234   1.083       .  S
C1235      C1240   1.401       .  A
C1235      H1241   1.083       .  S
C1236      C1237   1.401       .  A
C1237      C1238   1.394       .  A
C1237      H1242   1.084       .  S
C1238      H1243   1.083       .  S
C1239      C1240   1.406       .  A
C1240      H1244   1.083       .  S
C1245      C1246   1.404   1_655  A
C1245      C1250   1.401       .  A
C1245      H1251   1.083       .  S
C1247      C1248   1.393       .  A
C1247      H1252   1.084       .  S
C1248      H1253   1.083       .  S
C1249      C1250   1.407   1_455  A
C1250      H1254   1.082       .  S
C1255      C1260   1.404       .  A
C1255      H1261   1.083       .  S
C1256      C1257   1.402       .  A
C1257      C1258   1.394       .  A
C1257      H1262   1.084       .  S
C1258      C1259   1.404       .  A
C1258      H1263   1.083       .  S
C1260      H1264   1.083       .  S
