geometry optimzed in LAMMPS
_audit_creation_date              2020-11-30 
_audit_creation_method            'lammps2cif' 
_symmetry_space_group_name_H-M    'P1' 
_symmetry_Int_Tables_number       1 
_symmetry_cell_setting            triclinic 
loop_ 
_symmetry_equiv_pos_as_xyz 
  x,y,z 
_cell_length_a                    37.75163537 
_cell_length_b                    37.76028179023929 
_cell_length_c                    30.911754215846805 
_cell_angle_alpha                 90.13914971581576 
_cell_angle_beta                  89.8341292622343 
_cell_angle_gamma                 120.22478308700505 
loop_ 
_atom_site_label 
_atom_site_type_symbol 
_atom_site_fract_x 
_atom_site_fract_y 
_atom_site_fract_z 
_atom_site_charge 
Fe1        Fe  0.58068148  0.66700409  0.41510921     1.65800
Fe2        Fe  0.50327486  0.66914000  0.35988342     1.73200
Fe3        Fe  0.50054899  0.66410157  0.47042866     1.54400
O4          O  0.50444049  0.61348196  0.48852743    -0.80100
O5          O  0.48536043  0.70891023  0.38410507    -0.78400
O6          O  0.55415319  0.61301169  0.44849840    -0.82600
O7          O  0.60345485  0.70019083  0.47141163    -0.77500
O8          O  0.44278678  0.62399044  0.44623741    -0.79200
O9          O  0.55798877  0.72000058  0.34170385    -0.82000
C10         C  0.59023763  0.71224408  0.50228770     0.98800
C11         C  0.52487274  0.59703883  0.47555029     1.06200
O12         O  0.52818170  0.66675695  0.41514269    -1.11000
O13         O  0.51672923  0.62990565  0.32562309    -0.73400
O14         O  0.57045332  0.63381751  0.35884107    -0.76900
O15         O  0.55325830  0.70355611  0.50475185    -0.77600
C16         C  0.54510330  0.62144794  0.32809017     0.97700
O17         O  0.60825923  0.72100210  0.38171408    -0.75500
O18         O  0.44639831  0.61907224  0.37458355    -0.80700
C19         C  0.48476432  0.72448748  0.42029237     1.00300
C20         C  0.42672631  0.60831947  0.41006457     1.06200
O21         O  0.49365016  0.71389289  0.45575874    -0.76400
C22         C  0.59494256  0.73674246  0.35466423     1.04500
Fe23       Fe  0.65930546  0.58801849  0.08231271     1.65800
Fe24       Fe  0.66145371  0.51060929  0.13755167     1.73200
Fe25       Fe  0.65649228  0.50795609  0.02701994     1.54400
O26         O  0.60579891  0.51172647  0.00895340    -0.80100
O27         O  0.70114648  0.49259417  0.11327688    -0.78400
O28         O  0.60538084  0.56154526  0.04878017    -0.82600
O29         O  0.69267291  0.61088667  0.02609739    -0.77500
O30         O  0.61647144  0.45018334  0.05126914    -0.79200
O31         O  0.71238517  0.56525807  0.15564968    -0.82000
C32         C  0.70464290  0.59766384  0.99515302     0.98800
C33         C  0.58938871  0.53222330  0.02180672     1.06200
O34         O  0.65908955  0.53554890  0.08229465    -1.11000
O35         O  0.62232799  0.52417012  0.17191758    -0.73400
O36         O  0.62594609  0.57767519  0.13849147    -0.76900
O37         O  0.69585208  0.56066822  0.99262087    -0.77600
C38         C  0.61372738  0.55243606  0.16935539     0.97700
O39         O  0.71323048  0.61556879  0.11584646    -0.75500
O40         O  0.61129709  0.45380377  0.12288773    -0.80700
C41         C  0.71685437  0.49216179  0.07710691     1.00300
C42         C  0.60067408  0.43412843  0.08742183     1.06200
O43         O  0.70637869  0.50120721  0.04166390    -0.76400
C44         C  0.72904571  0.60223573  0.14278755     1.04500
Fe45       Fe  0.73630175  0.74387343  0.74868134     1.65800
Fe46       Fe  0.81363383  0.82390424  0.80402861     1.73200
Fe47       Fe  0.81646986  0.82117052  0.69335874     1.54400
O48         O  0.81111556  0.76604017  0.67457088    -0.80100
O49         O  0.83036129  0.88145174  0.78034408    -0.78400
O50         O  0.76314803  0.71618177  0.71653195    -0.82600
O51         O  0.71417679  0.75344591  0.69156509    -0.77500
O52         O  0.87397015  0.83773872  0.71706388    -0.79200
O53         O  0.75852239  0.81865623  0.82279196    -0.82000
C54         C  0.72709563  0.77967313  0.66160352     0.98800
C55         C  0.79160670  0.72936004  0.68852343     1.06200
O56         O  0.78887871  0.79639452  0.74868902    -1.11000
O57         O  0.80126285  0.77116868  0.83740524    -0.73400
O58         O  0.74577092  0.72164948  0.80579044    -0.76900
O59         O  0.76377810  0.80893131  0.65996676    -0.77600
C60         C  0.77198134  0.73450899  0.83575087     0.97700
O61         O  0.70865497  0.77076705  0.78082782    -0.75500
O62         O  0.87101451  0.83238333  0.78905472    -0.80700
C63         C  0.83241228  0.89784296  0.74398254     1.00300
C64         C  0.89030365  0.83970476  0.75343228     1.06200
O65         O  0.82507846  0.87858613  0.70835308    -0.76400
C66         C  0.72184761  0.79920955  0.80882491     1.04500
Fe67       Fe  0.32604292  0.41249727  0.91468688     1.65800
Fe68       Fe  0.32389942  0.48991225  0.85945996     1.73200
Fe69       Fe  0.32896084  0.49261135  0.96998378     1.54400
O70         O  0.28960992  0.43992197  0.00441653    -0.80100
O71         O  0.37408853  0.54671836  0.87407775    -0.78400
O72         O  0.29271458  0.38966738  0.97093032    -0.82600
O73         O  0.38000090  0.43896201  0.94816055    -0.77500
O74         O  0.27907924  0.49938447  0.95539453    -0.79200
O75         O  0.36297570  0.47630987  0.82505352    -0.82000
C76         C  0.39603985  0.46830573  0.97510550     0.98800
C77         C  0.28077938  0.40291521  0.00188251     1.06200
O78         O  0.32629640  0.46498673  0.91471061    -1.11000
O79         O  0.27292312  0.43526719  0.84141853    -0.73400
O80         O  0.27208146  0.38495671  0.88121683    -0.76900
O81         O  0.37965782  0.48882105  0.98798490    -0.77600
C82         C  0.25624711  0.39829545  0.85430629     0.97700
O83         O  0.35934804  0.42279663  0.85847060    -0.75500
O84         O  0.28425317  0.50796312  0.88377624    -0.80700
C85         C  0.38474311  0.56640930  0.90953473     1.00300
C86         C  0.26858050  0.50841929  0.91995979     1.06200
O87         O  0.36897566  0.55036897  0.94570107    -0.76400
C88         C  0.37155491  0.44802788  0.82759849     1.04500
Fe89       Fe  0.40468555  0.33352674  0.58170664     1.65800
Fe90       Fe  0.48203375  0.33137625  0.63703607     1.73200
Fe91       Fe  0.48488437  0.33645196  0.52649650     1.54400
O92         O  0.43221576  0.29702934  0.49210042    -0.80100
O93         O  0.53892531  0.38146474  0.62240213    -0.78400
O94         O  0.38196982  0.30033569  0.52540057    -0.82600
O95         O  0.43125077  0.38752451  0.54831828    -0.77500
O96         O  0.49173800  0.28664178  0.54118562    -0.79200
O97         O  0.46851927  0.37057668  0.67127916    -0.82000
C98         C  0.46058314  0.40352284  0.52132761     0.98800
C99         C  0.39522641  0.28831168  0.49453567     1.06200
O100        O  0.45718711  0.33377738  0.58174406    -1.11000
O101        O  0.42730354  0.28048748  0.65513987    -0.73400
O102        O  0.37706876  0.27952070  0.61509651    -0.76900
O103        O  0.48103869  0.38709199  0.50839232    -0.77600
C104        C  0.39035992  0.26375439  0.64214492     0.97700
O105        O  0.41485727  0.36671363  0.63796821    -0.75500
O106        O  0.49999332  0.29163577  0.61284330    -0.80700
C107        C  0.55864371  0.39220592  0.58694668     1.00300
C108        C  0.50060531  0.27605372  0.57666582     1.06200
O109        O  0.54262383  0.37653212  0.55076127    -0.76400
C110        C  0.44015934  0.37905131  0.66876357     1.04500
Fe111      Fe  0.24903248  0.25662267  0.24822825     1.65800
Fe112      Fe  0.17160857  0.17660623  0.19293512     1.73200
Fe113      Fe  0.16891862  0.17929437  0.30360149     1.54400
O114        O  0.22164606  0.19163860  0.33698657    -0.80100
O115        O  0.11429797  0.16825805  0.20798556    -0.78400
O116        O  0.27126813  0.24699649  0.30522840    -0.82600
O117        O  0.22225451  0.28429452  0.28055862    -0.77500
O118        O  0.16043908  0.12193904  0.28857864    -0.79200
O119        O  0.18405144  0.22935146  0.15952743    -0.82000
C120        C  0.19375759  0.27108624  0.30852726     0.98800
C121        C  0.25835303  0.22083480  0.33525193     1.06200
O122        O  0.19645076  0.20410400  0.24825556    -1.11000
O123        O  0.22665267  0.18175300  0.17411876    -0.73400
O124        O  0.27662051  0.22976059  0.21589936    -0.76900
O125        O  0.17418368  0.23437765  0.32238789    -0.77600
C126        C  0.26336725  0.20126444  0.18795898     0.97700
O127        O  0.23946235  0.27890370  0.19122495    -0.75500
O128        O  0.15479601  0.11902897  0.21662012    -0.80700
C129        C  0.09501606  0.16078330  0.24362553     1.00300
C130        C  0.15292730  0.10265893  0.25294921     1.06200
O131        O  0.11136375  0.16260565  0.27994813    -0.76400
C132        C  0.21328786  0.26603104  0.16123144     1.04500
Fe133      Fe  0.40312373  0.07727654  0.08204099     1.65800
Fe134      Fe  0.48313216  0.15471636  0.02670399     1.73200
Fe135      Fe  0.48042846  0.15732648  0.13739270     1.54400
O136        O  0.42529213  0.15197491  0.15624209    -0.80100
O137        O  0.54068823  0.17135138  0.05030510    -0.78400
O138        O  0.37542923  0.10407084  0.11427629    -0.82600
O139        O  0.41266940  0.05505281  0.13912205    -0.77500
O140        O  0.49704608  0.21487535  0.11379526    -0.79200
O141        O  0.47786811  0.09964494  0.00779164    -0.82000
C142        C  0.43887358  0.06792023  0.16909147     0.98800
C143        C  0.38860819  0.13249051  0.14230059     1.06200
O144        O  0.45563986  0.12985037  0.08204778    -1.11000
O145        O  0.43036614  0.14242122  0.99341250    -0.73400
O146        O  0.38089361  0.08681661  0.02496132    -0.76900
O147        O  0.46814580  0.10458881  0.17073796    -0.77600
C148        C  0.39371928  0.11308739  0.99504090     0.97700
O149        O  0.43004866  0.04970808  0.04980268    -0.75500
O150        O  0.49163274  0.21207026  0.04181787    -0.80700
C151        C  0.55707654  0.17327108  0.08662845     1.00300
C152        C  0.49898612  0.23128521  0.07747566     1.06200
O153        O  0.53783097  0.16589153  0.12228994    -0.76400
C154        C  0.45845835  0.06295384  0.02173158     1.04500
Fe155      Fe  0.24712868  0.00026190  0.74858784     1.65800
Fe156      Fe  0.16965718  0.00221917  0.69334156     1.73200
Fe157      Fe  0.16710551  0.99753045  0.80392531     1.54400
O158        O  0.17105671  0.94698357  0.82221226    -0.80100
O159        O  0.15186631  0.04212894  0.71740971    -0.78400
O160        O  0.22057525  0.94629255  0.78202154    -0.82600
O161        O  0.26993795  0.03346834  0.80489521    -0.77500
O162        O  0.10931415  0.95731392  0.77988654    -0.79200
O163        O  0.22436521  0.05298969  0.67495366    -0.82000
C164        C  0.25679629  0.04567465  0.83570606     0.98800
C165        C  0.19138636  0.93044133  0.80919307     1.06200
O166        O  0.19463808  0.00001040  0.74862031    -1.11000
O167        O  0.18300118  0.96282994  0.65922577    -0.73400
O168        O  0.23691917  0.96706005  0.69231478    -0.76900
O169        O  0.21985593  0.03712026  0.83811915    -0.77600
C170        C  0.21148556  0.95452618  0.66163507     0.97700
O171        O  0.27466106  0.05423533  0.71514332    -0.75500
O172        O  0.11278812  0.95223680  0.70823662    -0.80700
C173        C  0.15133307  0.05781464  0.75354639     1.00300
C174        C  0.09319116  0.94155475  0.74376384     1.06200
O175        O  0.16017801  0.04726154  0.78906170    -0.76400
C176        C  0.26131553  0.06983885  0.68795401     1.04500
Fe177      Fe  0.32588060  0.92136424  0.41572856     1.65800
Fe178      Fe  0.32802114  0.84394209  0.47094401     1.73200
Fe179      Fe  0.32311304  0.84134235  0.36039711     1.54400
O180        O  0.27245522  0.84516400  0.34228493    -0.80100
O181        O  0.36774857  0.82596502  0.44669430    -0.78400
O182        O  0.27196352  0.89488444  0.38222382    -0.82600
O183        O  0.35924402  0.94424984  0.35948961    -0.77500
O184        O  0.28302785  0.78357019  0.38459703    -0.79200
O185        O  0.37893710  0.89860596  0.48907600    -0.82000
C186        C  0.37129164  0.93106468  0.32857420     0.98800
C187        C  0.25600660  0.86560565  0.35520368     1.06200
O188        O  0.32567901  0.86890093  0.41569012    -1.11000
O189        O  0.28885027  0.85745595  0.50529773    -0.73400
O190        O  0.29252042  0.91100849  0.47192987    -0.76900
O191        O  0.36255242  0.89408145  0.32606105    -0.77600
C192        C  0.28026822  0.88573744  0.50276966     0.97700
O193        O  0.37979729  0.94891154  0.44924715    -0.75500
O194        O  0.27788870  0.78712397  0.45623237    -0.80700
C195        C  0.38344174  0.82550181  0.41052654     1.00300
C196        C  0.26724247  0.76748475  0.42074336     1.06200
O197        O  0.37295100  0.83451549  0.37507325    -0.76400
C198        C  0.39560406  0.93558201  0.47619969     1.04500
Fe199      Fe  0.58221485  0.92322353  0.91487281     1.65800
Fe200      Fe  0.50222788  0.84581500  0.97028986     1.73200
Fe201      Fe  0.50478561  0.84319711  0.85959895     1.54400
O202        O  0.51712456  0.89594195  0.82623308    -0.80100
O203        O  0.49380343  0.78849235  0.95516922    -0.78400
O204        O  0.57255575  0.94549782  0.85789729    -0.82600
O205        O  0.60982068  0.89642671  0.88245319    -0.77500
O206        O  0.44745408  0.83476282  0.87478091    -0.79200
O207        O  0.55501785  0.85818933  0.00358613    -0.82000
C208        C  0.59657276  0.86796102  0.85447665     0.98800
C209        C  0.54636122  0.93262560  0.82791931     1.06200
O210        O  0.52967214  0.87067377  0.91491985    -1.11000
O211        O  0.50744608  0.90086613  0.98917249    -0.73400
O212        O  0.55540184  0.95082143  0.94728606    -0.76900
O213        O  0.55984724  0.84843367  0.84066327    -0.77600
C214        C  0.52694825  0.93757893  0.97530829     0.97700
O215        O  0.60455057  0.91361551  0.97183961    -0.75500
O216        O  0.44463100  0.82910079  0.94674340    -0.80700
C217        C  0.48630630  0.76924916  0.91951566     1.00300
C218        C  0.42822626  0.82728850  0.91045972     1.06200
O219        O  0.48809849  0.78563199  0.88321606    -0.76400
C220        C  0.59170543  0.88743020  0.00184481     1.04500
Fe221      Fe  0.73820208  0.00023612  0.24828301     1.65800
Fe222      Fe  0.81563839  0.99829579  0.30363223     1.73200
Fe223      Fe  0.81829917  0.00300778  0.19305622     1.54400
O224        O  0.76558869  0.96345221  0.15877526    -0.80100
O225        O  0.87247727  0.04835721  0.28881787    -0.78400
O226        O  0.71543307  0.96696530  0.19200782    -0.82600
O227        O  0.76474881  0.05417689  0.21479355    -0.77500
O228        O  0.82517695  0.95325701  0.20793724    -0.79200
O229        O  0.80214228  0.03756305  0.33778000    -0.82000
C230        C  0.79399895  0.07006799  0.18769592     0.98800
C231        C  0.72862361  0.95482095  0.16118653     1.06200
O232        O  0.79070248  0.00050878  0.24832272    -1.11000
O233        O  0.76095491  0.94745268  0.32190584    -0.73400
O234        O  0.71066493  0.94629152  0.28177854    -0.76900
O235        O  0.81439261  0.05357014  0.17475649    -0.77600
C236        C  0.72400456  0.93064167  0.30891730     0.97700
O237        O  0.74837035  0.03348878  0.30451260    -0.75500
O238        O  0.83356940  0.95849071  0.27957492    -0.80700
C239        C  0.89213004  0.05899986  0.25332164     1.00300
C240        C  0.83407600  0.94276486  0.24345605     1.06200
O241        O  0.87606440  0.04319498  0.21719171    -0.76400
C242        C  0.77370488  0.04592863  0.33528304     1.04500
Fe243      Fe  0.65936366  0.07914383  0.58135067     1.65800
Fe244      Fe  0.65731907  0.15661268  0.52613863     1.73200
Fe245      Fe  0.66228449  0.15924026  0.63667848     1.54400
O246        O  0.62284334  0.10653855  0.67105822    -0.80100
O247        O  0.70751824  0.21338980  0.54081336    -0.78400
O248        O  0.62601398  0.05630800  0.63760187    -0.82600
O249        O  0.71329878  0.10557107  0.61483025    -0.77500
O250        O  0.61245934  0.16609353  0.62203751    -0.79200
O251        O  0.69640067  0.14300216  0.49174670    -0.82000
C252        C  0.72931476  0.13487221  0.64182250     0.98800
C253        C  0.61402915  0.06953476  0.66853399     1.06200
O254        O  0.65965171  0.13164777  0.58138971    -1.11000
O255        O  0.60633321  0.10199243  0.50805327    -0.73400
O256        O  0.60542269  0.05165700  0.54787154    -0.76900
O257        O  0.71292656  0.15537132  0.65473849    -0.77600
C258        C  0.58962364  0.06502004  0.52094843     0.97700
O259        O  0.69268332  0.08943332  0.52512460    -0.75500
O260        O  0.61767449  0.17467668  0.55042079    -0.80700
C261        C  0.71817590  0.23304709  0.57628986     1.00300
C262        C  0.60197881  0.17512636  0.58659036     1.06200
O263        O  0.70238021  0.21699143  0.61244235    -0.76400
C264        C  0.70493489  0.11468697  0.49426749     1.04500
Fe265      Fe  0.06977367  0.41074782  0.41486970     1.65800
Fe266      Fe  0.14713627  0.49066567  0.47029706     1.73200
Fe267      Fe  0.14991867  0.48814349  0.35961485     1.54400
O268        O  0.14465533  0.43307334  0.34074918    -0.80100
O269        O  0.16385398  0.54824724  0.44672928    -0.78400
O270        O  0.09662957  0.38312505  0.38259444    -0.82600
O271        O  0.04761457  0.42038109  0.35780511    -0.77500
O272        O  0.20746048  0.50478275  0.38328237    -0.79200
O273        O  0.09203809  0.48541127  0.48914334    -0.82000
C274        C  0.06052937  0.44658908  0.32782469     0.98800
C275        C  0.12512281  0.39636304  0.35461745     1.06200
O276        O  0.12234996  0.46326032  0.41492454    -1.11000
O277        O  0.13475315  0.43787441  0.50357811    -0.73400
O278        O  0.07924639  0.38842523  0.47191860    -0.76900
O279        O  0.09721286  0.47585017  0.32618938    -0.77600
C280        C  0.10544988  0.40122611  0.50188696     0.97700
O281        O  0.04214087  0.43760059  0.44714080    -0.75500
O282        O  0.20450390  0.49913432  0.45524317    -0.80700
C283        C  0.16576695  0.56467652  0.41042736     1.00300
C284        C  0.22379990  0.50660647  0.41961061     1.06200
O285        O  0.15838603  0.54548157  0.37475120    -0.76400
C286        C  0.05535168  0.46599212  0.47520211     1.04500
Fe287      Fe  0.91392368  0.33347784  0.08130563     1.65800
Fe288      Fe  0.83643512  0.33558349  0.02621438     1.73200
Fe289      Fe  0.83388186  0.33059920  0.13677208     1.54400
O290        O  0.83787023  0.28002853  0.15487899    -0.80100
O291        O  0.81856990  0.37538251  0.05046806    -0.78400
O292        O  0.88742643  0.27947054  0.11464586    -0.82600
O293        O  0.93675826  0.36664450  0.13763228    -0.77500
O294        O  0.77610160  0.29040877  0.11269165    -0.79200
O295        O  0.89113499  0.38643086  0.00795781    -0.82000
C296        C  0.92360700  0.37879276  0.16848868     0.98800
C297        C  0.85822703  0.26353891  0.14179182     1.06200
O298        O  0.86142281  0.33322830  0.08143034    -1.11000
O299        O  0.84983485  0.29632477  0.99191239    -0.73400
O300        O  0.90365896  0.30033123  0.02499564    -0.76900
O301        O  0.88664420  0.37015887  0.17096866    -0.77600
C302        C  0.87825420  0.28792421  0.99429367     0.97700
O303        O  0.94144553  0.38747710  0.04794087    -0.75500
O304        O  0.77956612  0.28553056  0.04101082    -0.80700
C305        C  0.81798301  0.39094380  0.08666840     1.00300
C306        C  0.75997006  0.27475257  0.07653906     1.06200
O307        O  0.82687207  0.38032881  0.12211928    -0.76400
C308        C  0.92809725  0.40319261  0.02089959     1.04500
Fe309      Fe  0.99257921  0.25465273  0.74844814     1.65800
Fe310      Fe  0.99477384  0.17730999  0.80376478     1.73200
Fe311      Fe  0.98990426  0.17462618  0.69322040     1.54400
O312        O  0.93916776  0.17829091  0.67509956    -0.80100
O313        O  0.03456309  0.15940219  0.77955870    -0.78400
O314        O  0.93868585  0.22810868  0.71487199    -0.82600
O315        O  0.02598744  0.27754448  0.69224730    -0.77500
O316        O  0.94994185  0.11683176  0.71747469    -0.79200
O317        O  0.04563465  0.23199994  0.82190649    -0.82000
C318        C  0.03798595  0.26433515  0.66131312     0.98800
C319        C  0.92272206  0.19876220  0.68792650     1.06200
O320        O  0.99242324  0.20221602  0.74847697    -1.11000
O321        O  0.95555276  0.19078845  0.83805564    -0.73400
O322        O  0.95916279  0.24427884  0.80460240    -0.76900
O323        O  0.02922316  0.22734674  0.65879880    -0.77600
C324        C  0.94693046  0.21903790  0.83546837     0.97700
O325        O  0.04647467  0.28226783  0.78203218    -0.75500
O326        O  0.94469588  0.12045678  0.78908081    -0.80700
C327        C  0.05032569  0.15901189  0.74341169     1.00300
C328        C  0.93413634  0.10076712  0.75362231     1.06200
O329        O  0.03984270  0.16800113  0.70794105    -0.76400
C330        C  0.06227982  0.26897140  0.80902873     1.04500
Fe331      Fe  0.07140312  0.66696754  0.91558300     1.65800
Fe332      Fe  0.14886845  0.66489667  0.97075792     1.73200
Fe333      Fe  0.15154343  0.66995713  0.86021041     1.54400
O334        O  0.09883683  0.63040263  0.82594020    -0.80100
O335        O  0.20571540  0.71501632  0.95604754    -0.78400
O336        O  0.04865309  0.63381824  0.85924064    -0.82600
O337        O  0.09789483  0.72099359  0.88226693    -0.77500
O338        O  0.15856331  0.62023484  0.87485583    -0.79200
O339        O  0.13534897  0.70405963  0.00507693    -0.82000
C340        C  0.12713474  0.73696902  0.85516923     0.98800
C341        C  0.06185731  0.62171452  0.82839547     1.06200
O342        O  0.12392858  0.66726823  0.91551734    -1.11000
O343        O  0.09418569  0.61398051  0.98890966    -0.73400
O344        O  0.04388876  0.61294352  0.94890923    -0.76900
O345        O  0.14754019  0.72052043  0.84211694    -0.77600
C346        C  0.05723567  0.59720688  0.97592683     0.97700
O347        O  0.08157502  0.70007905  0.97190574    -0.75500
O348        O  0.16684455  0.62518517  0.94650763    -0.80700
C349        C  0.22535768  0.72581081  0.92054759     1.00300
C350        C  0.16745523  0.60963202  0.91031137     1.06200
O351        O  0.20928361  0.71014987  0.88437674    -0.76400
C352        C  0.10692542  0.71245108  0.00265777     1.04500
Fe353      Fe  0.99269509  0.74583918  0.24864724     1.65800
Fe354      Fe  0.99056289  0.82319977  0.19330025     1.73200
Fe355      Fe  0.99548237  0.82593485  0.30384020     1.54400
O356        O  0.95616682  0.77324686  0.33831582    -0.80100
O357        O  0.04070728  0.88002142  0.20793345    -0.78400
O358        O  0.95928124  0.72299143  0.30484837    -0.82600
O359        O  0.04658974  0.77234534  0.28222141    -0.77500
O360        O  0.94555404  0.83257468  0.28913709    -0.79200
O361        O  0.02968632  0.80960950  0.15897242    -0.82000
C362        C  0.06260002  0.80171750  0.30913397     0.98800
C363        C  0.94734236  0.73623942  0.33579880     1.06200
O364        O  0.99291204  0.79830468  0.24859651    -1.11000
O365        O  0.93963574  0.76854309  0.17522658    -0.73400
O366        O  0.93879544  0.71826060  0.21507454    -0.76900
O367        O  0.04620686  0.82224416  0.32193768    -0.77600
C368        C  0.92298002  0.73157391  0.18811166     0.97700
O369        O  0.02609737  0.75615731  0.19249112    -0.75500
O370        O  0.95086136  0.84120889  0.21752498    -0.80700
C371        C  0.05126907  0.89973957  0.24337486     1.00300
C372        C  0.93509436  0.84159286  0.25367030     1.06200
O373        O  0.03545087  0.88370865  0.27953119    -0.76400
C374        C  0.03829691  0.78135288  0.16158381     1.04500
Fe375      Fe  0.91562025  0.58975533  0.58219629     1.65800
Fe376      Fe  0.83823970  0.50986255  0.52674261     1.73200
Fe377      Fe  0.83547364  0.51231306  0.63742446     1.54400
O378        O  0.88818059  0.52464458  0.67086585    -0.80100
O379        O  0.78090016  0.50145883  0.54180897    -0.78400
O380        O  0.93781911  0.58003192  0.63917161    -0.82600
O381        O  0.88880293  0.61734998  0.61461269    -0.77500
O382        O  0.82709052  0.45502110  0.62225218    -0.79200
O383        O  0.85068572  0.56267265  0.49345848    -0.82000
C384        C  0.86026949  0.60408291  0.64254595     0.98800
C385        C  0.92488787  0.55384972  0.66917478     1.06200
O386        O  0.86304119  0.53724201  0.58212381    -1.11000
O387        O  0.89330712  0.51506024  0.50789541    -0.73400
O388        O  0.94324129  0.56295275  0.54979592    -0.76900
O389        O  0.84067487  0.56734398  0.65632168    -0.77600
C390        C  0.93001280  0.53452832  0.52177136     0.97700
O391        O  0.90609485  0.61215203  0.52523091    -0.75500
O392        O  0.82146297  0.45225771  0.55028982    -0.80700
C393        C  0.76158670  0.49388381  0.57743930     1.00300
C394        C  0.81963447  0.43582905  0.58656942     1.06200
O395        O  0.77791475  0.49561650  0.61375154    -0.76400
C396        C  0.87993714  0.59934352  0.49521720     1.04500
C397        C  0.92435719  0.70796029  0.37029749    -0.16900
C398        C  0.90870073  0.68285646  0.39901390     0.07100
C399        C  0.89406832  0.65287889  0.43249737     0.09000
C400        C  0.88509751  0.62774145  0.46104048    -0.17800
C401        C  0.10166207  0.73559161  0.03695693    -0.16900
C402        C  0.09241755  0.75159651  0.06547506     0.07100
C403        C  0.07738846  0.76673216  0.09878517     0.09000
C404        C  0.06144415  0.77605669  0.12730202    -0.17800
C405        C  0.03354894  0.59864030  0.79397814    -0.16900
C406        C  0.00839612  0.58283992  0.76534759     0.07100
C407        C  0.97835529  0.56802417  0.73194329     0.09000
C408        C  0.95319914  0.55895942  0.70341569    -0.17800
C409        C  0.88345368  0.26473168  0.96000844    -0.16900
C410        C  0.89268511  0.24869970  0.93150950     0.07100
C411        C  0.90773869  0.23356469  0.89822614     0.09000
C412        C  0.92372585  0.22427067  0.86972982    -0.17800
C413        C  0.95595107  0.44351139  0.00660913    -0.16900
C414        C  0.97923604  0.47914669  0.00050228     0.07100
C415        C  0.00613275  0.52120764  0.99620341     0.09000
C416        C  0.02939979  0.55685442  0.99013906    -0.17800
C417        C  0.95749793  0.52175792  0.50735803    -0.16900
C418        C  0.97989064  0.50851649  0.50089133     0.07100
C419        C  0.00548343  0.49202895  0.49603667     0.09000
C420        C  0.02787293  0.47878079  0.48958680    -0.17800
C421        C  0.06097675  0.29263434  0.62683198    -0.16900
C422        C  0.07664813  0.31773984  0.59812013     0.07100
C423        C  0.09130292  0.34771440  0.56463443     0.09000
C424        C  0.10028668  0.37284619  0.53608365    -0.17800
C425        C  0.95194973  0.40184498  0.20289718    -0.16900
C426        C  0.97709533  0.41761366  0.23154432     0.07100
C427        C  0.00710477  0.43239727  0.26498753     0.09000
C428        C  0.03223210  0.44145340  0.29354943    -0.17800
C429        C  0.88250624  0.18635452  0.67354605    -0.16900
C430        C  0.84698227  0.17418625  0.66718340     0.07100
C431        C  0.80504620  0.15932634  0.66248461     0.09000
C432        C  0.76952570  0.14719781  0.65615189    -0.17800
C433        C  0.80667487  0.39282322  0.58669808    -0.16900
C434        C  0.79178455  0.35609621  0.58374767     0.07100
C435        C  0.77018703  0.31286434  0.57900863     0.09000
C436        C  0.74833681  0.27610704  0.57605618    -0.17800
C437        C  0.84582935  0.22330602  0.15609071    -0.16900
C438        C  0.83361376  0.18776355  0.16235355     0.07100
C439        C  0.81864951  0.14580947  0.16696100     0.09000
C440        C  0.80641752  0.11027307  0.17328513    -0.17800
C441        C  0.76838692  0.06908721  0.36953246    -0.16900
C442        C  0.75909557  0.08505854  0.39805064     0.07100
C443        C  0.74402538  0.10013197  0.43139301     0.09000
C444        C  0.72806732  0.10940863  0.45994450    -0.17800
C445        C  0.84709890  0.91285349  0.24330433    -0.16900
C446        C  0.86199048  0.89112739  0.24626416     0.07100
C447        C  0.88349758  0.86956271  0.25098754     0.09000
C448        C  0.90518957  0.85462834  0.25391307    -0.17800
C449        C  0.70033144  0.93181645  0.12671907    -0.16900
C450        C  0.67521439  0.91615173  0.09802748     0.07100
C451        C  0.64522244  0.90151494  0.06456435     0.09000
C452        C  0.62008317  0.89255193  0.03603032    -0.17800
C453        C  0.59097863  0.04123090  0.70299235    -0.16900
C454        C  0.57523541  0.01610707  0.73167847     0.07100
C455        C  0.56049937  0.98610763  0.76514396     0.09000
C456        C  0.55148136  0.96096983  0.79369688    -0.17800
C457        C  0.38520410  0.81432097  0.91031329    -0.16900
C458        C  0.34845996  0.79942193  0.91321055     0.07100
C459        C  0.30520342  0.77781755  0.91787399     0.09000
C460        C  0.26843040  0.75596861  0.92078080    -0.17800
C461        C  0.21579411  0.85323674  0.34084686    -0.16900
C462        C  0.18027026  0.84109178  0.33451611     0.07100
C463        C  0.13833396  0.82623690  0.32983893     0.09000
C464        C  0.10281148  0.81408962  0.32349658    -0.17800
C465        C  0.43592518  0.96349037  0.49044712    -0.16900
C466        C  0.47155894  0.98684727  0.49650224     0.07100
C467        C  0.51361993  0.01383635  0.50074014     0.09000
C468        C  0.54926701  0.03716109  0.50676035    -0.17800
C469        C  0.23710251  0.72441384  0.42095222    -0.16900
C470        C  0.21525804  0.68765482  0.41797924     0.07100
C471        C  0.19365090  0.64442084  0.41322342     0.09000
C472        C  0.17874462  0.60768974  0.41027200    -0.17800
C473        C  0.21673598  0.93132121  0.62739358    -0.16900
C474        C  0.22600133  0.91531442  0.59889280     0.07100
C475        C  0.24108190  0.90022331  0.56558411     0.09000
C476        C  0.25707718  0.89096020  0.53706296    -0.17800
C477        C  0.13952152  0.77720441  0.84088427    -0.16900
C478        C  0.15174306  0.81274600  0.83460466     0.07100
C479        C  0.16672225  0.85470043  0.82995967     0.09000
C480        C  0.17896401  0.89023561  0.82361040    -0.17800
C481        C  0.13833029  0.08774557  0.75372307    -0.16900
C482        C  0.12344326  0.10947927  0.75078302     0.07100
C483        C  0.10193717  0.13105200  0.74608195     0.09000
C484        C  0.08024483  0.14598947  0.74316902    -0.17800
C485        C  0.51418438  0.96506313  0.98972040    -0.16900
C486        C  0.50097006  0.98748164  0.99614397     0.07100
C487        C  0.48451614  0.01310707  0.00093101     0.09000
C488        C  0.47127736  0.03550681  0.00734177    -0.17800
C489        C  0.36536541  0.10796686  0.96083319    -0.16900
C490        C  0.34023034  0.09899512  0.93229565     0.07100
C491        C  0.31023668  0.08434256  0.89883768     0.09000
C492        C  0.28511345  0.06867131  0.87015505    -0.17800
C493        C  0.39431995  0.95938643  0.29411617    -0.16900
C494        C  0.41003061  0.98450250  0.26541528     0.07100
C495        C  0.42473079  0.01447699  0.23192113     0.09000
C496        C  0.43373494  0.03959155  0.20334322    -0.17800
C497        C  0.71688655  0.24461802  0.07636004    -0.16900
C498        C  0.68011228  0.22278019  0.07929082     0.07100
C499        C  0.63685361  0.20117301  0.08395785     0.09000
C500        C  0.60010515  0.18625986  0.08683446    -0.17800
C501        C  0.36110318  0.14526795  0.15658680    -0.16900
C502        C  0.33872229  0.15855484  0.16283013     0.07100
C503        C  0.31317974  0.17512124  0.16738495     0.09000
C504        C  0.29082484  0.18843496  0.17365086    -0.17800
C505        C  0.18100998  0.29859581  0.32286510    -0.16900
C506        C  0.16774357  0.32097523  0.32922345     0.07100
C507        C  0.15120042  0.34652332  0.33392875     0.09000
C508        C  0.13791493  0.36888789  0.34027980    -0.17800
C509        C  0.13983176  0.05961670  0.25321327    -0.16900
C510        C  0.12483409  0.02286283  0.25042966     0.07100
C511        C  0.10317634  0.97960522  0.24589616     0.09000
C512        C  0.08134791  0.94283122  0.24307900    -0.17800
C513        C  0.93519612  0.08916897  0.25352980    -0.16900
C514        C  0.97196419  0.11107203  0.25068768     0.07100
C515        C  0.01522877  0.13277841  0.24615436     0.09000
C516        C  0.05198799  0.14776535  0.24337508    -0.17800
C517        C  0.36246910  0.22342273  0.65640712    -0.16900
C518        C  0.33921480  0.18779376  0.66263191     0.07100
C519        C  0.31237311  0.14574043  0.66720019     0.09000
C520        C  0.28914560  0.11012292  0.67351942    -0.17800
C521        C  0.36696881  0.26531904  0.46006134    -0.16900
C522        C  0.34184461  0.24962001  0.43139526     0.07100
C523        C  0.31183035  0.23492929  0.39797617     0.09000
C524        C  0.28668370  0.22593771  0.36945877    -0.17800
C525        C  0.71854996  0.48086504  0.57718843    -0.16900
C526        C  0.68178671  0.46589040  0.57995980     0.07100
C527        C  0.63851144  0.44420611  0.58446533     0.09000
C528        C  0.60173068  0.42233288  0.58725884    -0.17800
C529        C  0.57211561  0.18822969  0.58687712    -0.16900
C530        C  0.55040082  0.20314761  0.58398345     0.07100
C531        C  0.52878284  0.22461702  0.57930592     0.09000
C532        C  0.51375762  0.24623413  0.57640458    -0.17800
C533        C  0.39468821  0.44275319  0.79329026    -0.16900
C534        C  0.41063574  0.43343412  0.76477536     0.07100
C535        C  0.42566727  0.41828218  0.73148948     0.09000
C536        C  0.43490697  0.40224441  0.70300620    -0.17800
C537        C  0.21841142  0.29437433  0.12702364    -0.16900
C538        C  0.22739448  0.31951242  0.09848835     0.07100
C539        C  0.24207258  0.34951019  0.06503920     0.09000
C540        C  0.25777146  0.37463054  0.03635359    -0.17800
C541        C  0.10257170  0.29690424  0.82335002    -0.16900
C542        C  0.13819280  0.32021698  0.82955023     0.07100
C543        C  0.18025338  0.34713203  0.83397753     0.09000
C544        C  0.21589462  0.37041489  0.84010519    -0.17800
C545        C  0.47331966  0.72623213  0.91970902    -0.16900
C546        C  0.45838159  0.68949183  0.91682518     0.07100
C547        C  0.43673530  0.64624708  0.91216237     0.09000
C548        C  0.41487609  0.60948359  0.90926123    -0.17800
C549        C  0.23874988  0.52156622  0.92028534    -0.16900
C550        C  0.21709990  0.53656301  0.91744466     0.07100
C551        C  0.19557206  0.55813230  0.91284035     0.09000
C552        C  0.18060273  0.57980516  0.90999815    -0.17800
C553        C  0.62405531  0.85518254  0.84010187    -0.16900
C554        C  0.64644251  0.84190805  0.83381662     0.07100
C555        C  0.67200422  0.82535880  0.82927032     0.09000
C556        C  0.69437346  0.81205098  0.82305481    -0.17800
C557        C  0.80439021  0.70185864  0.67424910    -0.16900
C558        C  0.81767670  0.67948685  0.66794874     0.07100
C559        C  0.83422539  0.65393794  0.66328489     0.09000
C560        C  0.84750037  0.63156451  0.65692973    -0.17800
C561        C  0.90406693  0.05767227  0.75388457    -0.16900
C562        C  0.88223020  0.02090126  0.75103864     0.07100
C563        C  0.86054877  0.97764598  0.74647972     0.09000
C564        C  0.84552732  0.94088938  0.74369066    -0.17800
C565        C  0.05012465  0.91138675  0.74360202    -0.16900
C566        C  0.01335965  0.88946878  0.74646323     0.07100
C567        C  0.97009524  0.86773504  0.75099464     0.09000
C568        C  0.93333204  0.85272812  0.75374883    -0.17800
C569        C  0.88266739  0.70366311  0.17384125    -0.16900
C570        C  0.84704154  0.68035716  0.16767303     0.07100
C571        C  0.80498735  0.65343367  0.16323916     0.09000
C572        C  0.76936114  0.63013390  0.15706332    -0.17800
C573        C  0.72763173  0.62595892  0.96068096    -0.16900
C574        C  0.74329194  0.65107396  0.93198342     0.07100
C575        C  0.75791615  0.68105433  0.89851662     0.09000
C576        C  0.76686329  0.70617582  0.86996952    -0.17800
C577        C  0.54919485  0.51988535  0.00738577    -0.16900
C578        C  0.51369200  0.50772354  0.00086817     0.07100
C579        C  0.47176646  0.49282067  0.99593150     0.09000
C580        C  0.43625563  0.48065059  0.98945523    -0.17800
C581        C  0.74669658  0.47902689  0.07679971    -0.16900
C582        C  0.76835382  0.46403512  0.07962159     0.07100
C583        C  0.78988824  0.44246639  0.08418569     0.09000
C584        C  0.80485628  0.42078877  0.08699742    -0.17800
C585        C  0.57053559  0.39105751  0.08767316    -0.16900
C586        C  0.54865504  0.35429742  0.08477680     0.07100
C587        C  0.52696984  0.31105204  0.08013216     0.09000
C588        C  0.51199722  0.27430711  0.07726575    -0.17800
C589        C  0.59055421  0.55768559  0.20363419    -0.16900
C590        C  0.57458175  0.56700309  0.23212151     0.07100
C591        C  0.55954016  0.58217059  0.26537812     0.09000
C592        C  0.55031330  0.59823035  0.29384735    -0.17800
C593        C  0.69879846  0.77458498  0.62736307    -0.16900
C594        C  0.67366898  0.76560692  0.59882872     0.07100
C595        C  0.64366032  0.75092759  0.56540215     0.09000
C596        C  0.61852715  0.73523485  0.53674195    -0.17800
C597        C  0.69616310  0.89034723  0.32329913    -0.16900
C598        C  0.67292419  0.85472788  0.32957480     0.07100
C599        C  0.64607356  0.81267877  0.33411866     0.09000
C600        C  0.62281818  0.77705612  0.34035761    -0.17800
C601        C  0.51247514  0.55681181  0.48987042    -0.16900
C602        C  0.50025057  0.52127242  0.49616182     0.07100
C603        C  0.48526656  0.47931473  0.50077042     0.09000
C604        C  0.47301775  0.44376749  0.50704025    -0.17800
C605        C  0.47160998  0.75430973  0.42058521    -0.16900
C606        C  0.45659140  0.77593901  0.41772678     0.07100
C607        C  0.43499358  0.79743850  0.41310383     0.09000
C608        C  0.41329917  0.81238546  0.41024159    -0.17800
C609        C  0.26683317  0.51961863  0.41987465    -0.16900
C610        C  0.30359617  0.53459635  0.41710833     0.07100
C611        C  0.34686897  0.55629266  0.41260136     0.09000
C612        C  0.38364572  0.57818001  0.40979482    -0.17800
loop_ 
_geom_bond_atom_site_label_1 
_geom_bond_atom_site_label_2 
_geom_bond_distance 
_geom_bond_site_symmetry_2 
_ccdc_geom_bond_type 
Fe1          O17   2.043       .  S
Fe1           O7   2.062       .  S
Fe1          O14   2.062       .  S
Fe1           O6   2.043       .  S
Fe1          O12   1.977       .  S
Fe2           O5   2.071       .  S
Fe2           O9   2.068       .  S
Fe2          O13   2.079       .  S
Fe2          O18   2.074       .  S
Fe2          O12   1.976       .  S
Fe3          O21   2.075       .  S
Fe3           O8   2.071       .  S
Fe3          O15   2.080       .  S
Fe3           O4   2.068       .  S
Fe3          O12   1.976       .  S
O4           C11   1.273       .  A
O5           C19   1.268       .  A
O6           C11   1.269       .  A
O7           C10   1.261       .  A
O8           C20   1.268       .  A
O9           C22   1.273       .  A
C10          O15   1.265       .  A
C10         C596   1.448       .  S
C11         C601   1.417       .  S
O13          C16   1.265       .  A
O14          C16   1.261       .  A
C16         C592   1.448       .  S
O17          C22   1.269       .  A
O18          C20   1.270       .  A
C19          O21   1.270       .  A
C19         C605   1.441       .  S
C20         C612   1.441       .  S
C22         C600   1.417       .  S
Fe23         O39   2.043       .  S
Fe23         O29   2.062       .  S
Fe23         O36   2.061       .  S
Fe23         O28   2.044       .  S
Fe23         O34   1.977       .  S
Fe24         O27   2.071       .  S
Fe24         O31   2.067       .  S
Fe24         O35   2.079       .  S
Fe24         O40   2.074       .  S
Fe24         O34   1.976       .  S
Fe25         O43   2.075       .  S
Fe25         O30   2.070       .  S
Fe25         O37   2.079   1_554  S
Fe25         O26   2.068       .  S
Fe25         O34   1.976       .  S
O26          C33   1.273       .  A
O27          C41   1.268       .  A
O28          C33   1.269       .  A
O29          C32   1.261   1_554  A
O30          C42   1.268       .  A
O31          C44   1.273       .  A
C32          O37   1.265       .  A
C32         C573   1.448       .  S
C33         C577   1.418       .  S
O35          C38   1.265       .  A
O36          C38   1.261       .  A
C38         C589   1.448       .  S
O39          C44   1.269       .  A
O40          C42   1.270       .  A
C41          O43   1.270       .  A
C41         C581   1.441       .  S
C42         C585   1.441       .  S
C44         C572   1.417       .  S
Fe45         O61   2.041       .  S
Fe45         O51   2.064       .  S
Fe45         O58   2.064       .  S
Fe45         O50   2.041       .  S
Fe45         O56   1.977       .  S
Fe46         O49   2.069       .  S
Fe46         O53   2.070       .  S
Fe46         O57   2.078       .  S
Fe46         O62   2.075       .  S
Fe46         O56   1.975       .  S
Fe47         O65   2.075       .  S
Fe47         O52   2.069       .  S
Fe47         O59   2.078       .  S
Fe47         O48   2.070       .  S
Fe47         O56   1.975       .  S
O48          C55   1.273       .  A
O49          C63   1.268       .  A
O50          C55   1.269       .  A
O51          C54   1.262       .  A
O52          C64   1.268       .  A
O53          C66   1.273       .  A
C54          O59   1.265       .  A
C54         C593   1.448       .  S
C55         C557   1.417       .  S
O57          C60   1.265       .  A
O58          C60   1.262       .  A
C60         C576   1.448       .  S
O61          C66   1.269       .  A
O62          C64   1.270       .  A
C63          O65   1.270       .  A
C63         C564   1.441       .  S
C64         C568   1.441       .  S
C66         C556   1.417       .  S
Fe67         O83   2.062       .  S
Fe67         O73   2.044       .  S
Fe67         O80   2.044       .  S
Fe67         O72   2.062       .  S
Fe67         O78   1.977       .  S
Fe68         O71   2.075       .  S
Fe68         O75   2.079       .  S
Fe68         O79   2.068       .  S
Fe68         O84   2.071       .  S
Fe68         O78   1.976       .  S
Fe69         O87   2.070       .  S
Fe69         O74   2.075       .  S
Fe69         O81   2.068       .  S
Fe69         O70   2.079   1_556  S
Fe69         O78   1.976       .  S
O70          C77   1.265       .  A
O71          C85   1.270       .  A
O72          C77   1.261   1_556  A
O73          C76   1.269       .  A
O74          C86   1.270       .  A
O75          C88   1.265       .  A
C76          O81   1.273       .  A
C76         C580   1.418       .  S
C77         C540   1.448       .  S
O79          C82   1.273       .  A
O80          C82   1.269       .  A
C82         C544   1.417       .  S
O83          C88   1.261       .  A
O84          C86   1.268       .  A
C85          O87   1.268       .  A
C85         C548   1.441       .  S
C86         C549   1.441       .  S
C88         C533   1.448       .  S
Fe89        O105   2.062       .  S
Fe89         O95   2.043       .  S
Fe89        O102   2.043       .  S
Fe89         O94   2.062       .  S
Fe89        O100   1.977       .  S
Fe90         O93   2.074       .  S
Fe90         O97   2.079       .  S
Fe90        O101   2.068       .  S
Fe90        O106   2.070       .  S
Fe90        O100   1.976       .  S
Fe91        O109   2.071       .  S
Fe91         O96   2.075       .  S
Fe91        O103   2.068       .  S
Fe91         O92   2.080       .  S
Fe91        O100   1.976       .  S
O92          C99   1.265       .  A
O93         C107   1.270       .  A
O94          C99   1.261       .  A
O95          C98   1.269       .  A
O96         C108   1.270       .  A
O97         C110   1.265       .  A
C98         O103   1.273       .  A
C98         C604   1.417       .  S
C99         C521   1.448       .  S
O101        C104   1.273       .  A
O102        C104   1.269       .  A
C104        C517   1.417       .  S
O105        C110   1.261       .  A
O106        C108   1.268       .  A
C107        O109   1.268       .  A
C107        C528   1.441       .  S
C108        C532   1.441       .  S
C110        C536   1.448       .  S
Fe111       O127   2.064       .  S
Fe111       O117   2.041       .  S
Fe111       O124   2.041       .  S
Fe111       O116   2.064       .  S
Fe111       O122   1.977       .  S
Fe112       O115   2.075       .  S
Fe112       O119   2.078       .  S
Fe112       O123   2.069       .  S
Fe112       O128   2.069       .  S
Fe112       O122   1.975       .  S
Fe113       O131   2.069       .  S
Fe113       O118   2.075       .  S
Fe113       O125   2.069       .  S
Fe113       O114   2.078       .  S
Fe113       O122   1.975       .  S
O114        C121   1.265       .  A
O115        C129   1.270       .  A
O116        C121   1.262       .  A
O117        C120   1.269       .  A
O118        C130   1.270       .  A
O119        C132   1.265       .  A
C120        O125   1.273       .  A
C120        C505   1.417       .  S
C121        C524   1.448       .  S
O123        C126   1.273       .  A
O124        C126   1.269       .  A
C126        C504   1.417       .  S
O127        C132   1.262       .  A
O128        C130   1.268       .  A
C129        O131   1.268       .  A
C129        C516   1.441       .  S
C130        C509   1.441       .  S
C132        C537   1.448       .  S
Fe133       O149   2.041       .  S
Fe133       O139   2.065       .  S
Fe133       O146   2.065       .  S
Fe133       O138   2.041       .  S
Fe133       O144   1.977       .  S
Fe134       O137   2.069       .  S
Fe134       O141   2.070       .  S
Fe134       O145   2.079   1_554  S
Fe134       O150   2.076       .  S
Fe134       O144   1.975       .  S
Fe135       O153   2.076       .  S
Fe135       O140   2.069       .  S
Fe135       O147   2.079       .  S
Fe135       O136   2.070       .  S
Fe135       O144   1.975       .  S
O136        C143   1.273       .  A
O137        C151   1.268       .  A
O138        C143   1.269       .  A
O139        C142   1.262       .  A
O140        C152   1.268       .  A
O141        C154   1.273       .  A
C142        O147   1.265       .  A
C142        C496   1.449       .  S
C143        C501   1.417       .  S
O145        C148   1.265       .  A
O146        C148   1.262   1_554  A
C148        C489   1.449       .  S
O149        C154   1.269       .  A
O150        C152   1.270       .  A
C151        O153   1.270       .  A
C151        C500   1.441       .  S
C152        C588   1.441       .  S
C154        C488   1.417       .  S
Fe155       O171   2.043       .  S
Fe155       O161   2.063       .  S
Fe155       O168   2.062   1_545  S
Fe155       O160   2.043   1_545  S
Fe155       O166   1.977       .  S
Fe156       O159   2.070       .  S
Fe156       O163   2.068       .  S
Fe156       O167   2.079   1_545  S
Fe156       O172   2.074   1_545  S
Fe156       O166   1.976       .  S
Fe157       O175   2.075   1_565  S
Fe157       O162   2.070       .  S
Fe157       O169   2.080   1_565  S
Fe157       O158   2.068       .  S
Fe157       O166   1.976   1_565  S
O158        C165   1.273       .  A
O159        C173   1.268       .  A
O160        C165   1.269       .  A
O161        C164   1.261       .  A
O162        C174   1.268       .  A
O163        C176   1.273       .  A
C164        O169   1.265       .  A
C164        C492   1.449       .  S
C165        C480   1.417       .  S
O167        C170   1.265       .  A
O168        C170   1.261       .  A
C170        C473   1.448       .  S
O171        C176   1.269       .  A
O172        C174   1.270       .  A
C173        O175   1.270       .  A
C173        C481   1.441       .  S
C174        C565   1.441       .  S
C176        C520   1.417       .  S
Fe177       O193   2.043       .  S
Fe177       O183   2.063       .  S
Fe177       O190   2.062       .  S
Fe177       O182   2.043       .  S
Fe177       O188   1.977       .  S
Fe178       O181   2.071       .  S
Fe178       O185   2.068       .  S
Fe178       O189   2.079       .  S
Fe178       O194   2.075       .  S
Fe178       O188   1.976       .  S
Fe179       O197   2.075       .  S
Fe179       O184   2.070       .  S
Fe179       O191   2.080       .  S
Fe179       O180   2.068       .  S
Fe179       O188   1.976       .  S
O180        C187   1.273       .  A
O181        C195   1.268       .  A
O182        C187   1.269       .  A
O183        C186   1.261       .  A
O184        C196   1.268       .  A
O185        C198   1.273       .  A
C186        O191   1.265       .  A
C186        C493   1.449       .  S
C187        C461   1.417       .  S
O189        C192   1.265       .  A
O190        C192   1.261       .  A
C192        C476   1.448       .  S
O193        C198   1.269       .  A
O194        C196   1.270       .  A
C195        O197   1.270       .  A
C195        C608   1.441       .  S
C196        C469   1.441       .  S
C198        C465   1.417       .  S
Fe199       O215   2.065       .  S
Fe199       O205   2.041       .  S
Fe199       O212   2.041       .  S
Fe199       O204   2.064       .  S
Fe199       O210   1.977       .  S
Fe200       O203   2.075       .  S
Fe200       O207   2.079   1_556  S
Fe200       O211   2.070       .  S
Fe200       O216   2.069       .  S
Fe200       O210   1.975       .  S
Fe201       O219   2.069       .  S
Fe201       O206   2.075       .  S
Fe201       O213   2.069       .  S
Fe201       O202   2.079       .  S
Fe201       O210   1.976       .  S
O202        C209   1.265       .  A
O203        C217   1.270       .  A
O204        C209   1.262       .  A
O205        C208   1.269       .  A
O206        C218   1.270       .  A
O207        C220   1.265       .  A
C208        O213   1.273       .  A
C208        C553   1.417       .  S
C209        C456   1.448       .  S
O211        C214   1.273       .  A
O212        C214   1.269       .  A
C214        C485   1.417       .  S
O215        C220   1.262   1_556  A
O216        C218   1.268       .  A
C217        O219   1.268       .  A
C217        C545   1.441       .  S
C218        C457   1.441       .  S
C220        C452   1.449       .  S
Fe221       O237   2.062       .  S
Fe221       O227   2.043       .  S
Fe221       O234   2.043   1_545  S
Fe221       O226   2.063   1_545  S
Fe221       O232   1.977       .  S
Fe222       O225   2.074   1_565  S
Fe222       O229   2.079   1_565  S
Fe222       O233   2.068       .  S
Fe222       O238   2.070       .  S
Fe222       O232   1.976   1_565  S
Fe223       O241   2.071       .  S
Fe223       O228   2.075   1_545  S
Fe223       O235   2.068       .  S
Fe223       O224   2.080   1_545  S
Fe223       O232   1.976       .  S
O224        C231   1.265       .  A
O225        C239   1.270       .  A
O226        C231   1.261       .  A
O227        C230   1.269       .  A
O228        C240   1.270       .  A
O229        C242   1.265       .  A
C230        O235   1.273       .  A
C230        C440   1.417       .  S
C231        C449   1.449       .  S
O233        C236   1.273       .  A
O234        C236   1.269       .  A
C236        C597   1.417       .  S
O237        C242   1.261       .  A
O238        C240   1.268       .  A
C239        O241   1.268       .  A
C239        C513   1.441       .  S
C240        C445   1.441       .  S
C242        C441   1.448       .  S
Fe243       O259   2.062       .  S
Fe243       O249   2.043       .  S
Fe243       O256   2.043       .  S
Fe243       O248   2.062       .  S
Fe243       O254   1.977       .  S
Fe244       O247   2.074       .  S
Fe244       O251   2.079       .  S
Fe244       O255   2.068       .  S
Fe244       O260   2.071       .  S
Fe244       O254   1.976       .  S
Fe245       O263   2.070       .  S
Fe245       O250   2.075       .  S
Fe245       O257   2.068       .  S
Fe245       O246   2.080       .  S
Fe245       O254   1.976       .  S
O246        C253   1.265       .  A
O247        C261   1.270       .  A
O248        C253   1.261       .  A
O249        C252   1.269       .  A
O250        C262   1.270       .  A
O251        C264   1.265       .  A
C252        O257   1.273       .  A
C252        C432   1.417       .  S
C253        C453   1.448       .  S
O255        C258   1.273       .  A
O256        C258   1.269       .  A
C258        C468   1.417       .  S
O259        C264   1.261       .  A
O260        C262   1.268       .  A
C261        O263   1.268       .  A
C261        C436   1.441       .  S
C262        C529   1.441       .  S
C264        C444   1.448       .  S
Fe265       O281   2.041       .  S
Fe265       O271   2.064       .  S
Fe265       O278   2.065       .  S
Fe265       O270   2.041       .  S
Fe265       O276   1.977       .  S
Fe266       O269   2.069       .  S
Fe266       O273   2.070       .  S
Fe266       O277   2.078       .  S
Fe266       O282   2.075       .  S
Fe266       O276   1.975       .  S
Fe267       O285   2.076       .  S
Fe267       O272   2.069       .  S
Fe267       O279   2.079       .  S
Fe267       O268   2.069       .  S
Fe267       O276   1.975       .  S
O268        C275   1.273       .  A
O269        C283   1.268       .  A
O270        C275   1.269       .  A
O271        C274   1.262       .  A
O272        C284   1.268       .  A
O273        C286   1.273       .  A
C274        O279   1.265       .  A
C274        C428   1.449       .  S
C275        C508   1.417       .  S
O277        C280   1.265       .  A
O278        C280   1.262       .  A
C280        C424   1.448       .  S
O281        C286   1.269       .  A
O282        C284   1.270       .  A
C283        O285   1.270       .  A
C283        C472   1.441       .  S
C284        C609   1.441       .  S
C286        C420   1.417       .  S
Fe287       O303   2.043       .  S
Fe287       O293   2.063       .  S
Fe287       O300   2.062       .  S
Fe287       O292   2.043       .  S
Fe287       O298   1.977       .  S
Fe288       O291   2.071       .  S
Fe288       O295   2.068       .  S
Fe288       O299   2.079   1_554  S
Fe288       O304   2.075       .  S
Fe288       O298   1.976       .  S
Fe289       O307   2.075       .  S
Fe289       O294   2.070       .  S
Fe289       O301   2.080       .  S
Fe289       O290   2.068       .  S
Fe289       O298   1.976       .  S
O290        C297   1.273       .  A
O291        C305   1.268       .  A
O292        C297   1.269       .  A
O293        C296   1.261       .  A
O294        C306   1.268       .  A
O295        C308   1.273       .  A
C296        O301   1.265       .  A
C296        C425   1.449       .  S
C297        C437   1.417       .  S
O299        C302   1.265       .  A
O300        C302   1.261   1_554  A
C302        C409   1.448       .  S
O303        C308   1.269       .  A
O304        C306   1.270       .  A
C305        O307   1.270       .  A
C305        C584   1.441       .  S
C306        C497   1.441       .  S
C308        C413   1.417       .  S
Fe309       O325   2.043   1_655  S
Fe309       O315   2.062   1_655  S
Fe309       O322   2.062       .  S
Fe309       O314   2.043       .  S
Fe309       O320   1.977       .  S
Fe310       O313   2.071   1_655  S
Fe310       O317   2.067   1_655  S
Fe310       O321   2.079       .  S
Fe310       O326   2.074       .  S
Fe310       O320   1.976       .  S
Fe311       O329   2.075   1_655  S
Fe311       O316   2.071       .  S
Fe311       O323   2.080   1_655  S
Fe311       O312   2.068       .  S
Fe311       O320   1.976       .  S
O312        C319   1.273       .  A
O313        C327   1.268       .  A
O314        C319   1.269       .  A
O315        C318   1.261       .  A
O316        C328   1.268       .  A
O317        C330   1.273       .  A
C318        O323   1.265       .  A
C318        C421   1.448       .  S
C319        C429   1.417       .  S
O321        C324   1.265       .  A
O322        C324   1.261       .  A
C324        C412   1.448       .  S
O325        C330   1.269       .  A
O326        C328   1.270       .  A
C327        O329   1.270       .  A
C327        C484   1.441       .  S
C328        C561   1.441       .  S
C330        C541   1.417       .  S
Fe331       O347   2.062       .  S
Fe331       O337   2.043       .  S
Fe331       O344   2.043       .  S
Fe331       O336   2.062       .  S
Fe331       O342   1.977       .  S
Fe332       O335   2.074       .  S
Fe332       O339   2.079   1_556  S
Fe332       O343   2.068       .  S
Fe332       O348   2.071       .  S
Fe332       O342   1.976       .  S
Fe333       O351   2.070       .  S
Fe333       O338   2.075       .  S
Fe333       O345   2.068       .  S
Fe333       O334   2.080       .  S
Fe333       O342   1.976       .  S
O334        C341   1.265       .  A
O335        C349   1.270       .  A
O336        C341   1.261       .  A
O337        C340   1.269       .  A
O338        C350   1.270       .  A
O339        C352   1.265       .  A
C340        O345   1.273       .  A
C340        C477   1.417       .  S
C341        C405   1.448       .  S
O343        C346   1.273       .  A
O344        C346   1.269       .  A
C346        C416   1.417       .  S
O347        C352   1.261   1_556  A
O348        C350   1.268       .  A
C349        O351   1.268       .  A
C349        C460   1.441       .  S
C350        C552   1.441       .  S
C352        C401   1.448       .  S
Fe353       O369   2.062   1_655  S
Fe353       O359   2.043   1_655  S
Fe353       O366   2.043       .  S
Fe353       O358   2.062       .  S
Fe353       O364   1.977       .  S
Fe354       O357   2.074   1_655  S
Fe354       O361   2.079   1_655  S
Fe354       O365   2.067       .  S
Fe354       O370   2.070       .  S
Fe354       O364   1.976       .  S
Fe355       O373   2.071   1_655  S
Fe355       O360   2.074       .  S
Fe355       O367   2.068   1_655  S
Fe355       O356   2.080       .  S
Fe355       O364   1.976       .  S
O356        C363   1.265       .  A
O357        C371   1.270       .  A
O358        C363   1.261       .  A
O359        C362   1.269       .  A
O360        C372   1.270       .  A
O361        C374   1.265       .  A
C362        O367   1.273       .  A
C362        C464   1.417       .  S
C363        C397   1.448       .  S
O365        C368   1.273       .  A
O366        C368   1.269       .  A
C368        C569   1.417       .  S
O369        C374   1.261       .  A
O370        C372   1.268       .  A
C371        O373   1.268       .  A
C371        C512   1.441       .  S
C372        C448   1.441       .  S
C374        C404   1.448       .  S
Fe375       O391   2.065       .  S
Fe375       O381   2.041       .  S
Fe375       O388   2.041       .  S
Fe375       O380   2.064       .  S
Fe375       O386   1.977       .  S
Fe376       O379   2.075       .  S
Fe376       O383   2.078       .  S
Fe376       O387   2.069       .  S
Fe376       O392   2.069       .  S
Fe376       O386   1.975       .  S
Fe377       O395   2.069       .  S
Fe377       O382   2.075       .  S
Fe377       O389   2.069       .  S
Fe377       O378   2.079       .  S
Fe377       O386   1.975       .  S
O378        C385   1.265       .  A
O379        C393   1.270       .  A
O380        C385   1.262       .  A
O381        C384   1.269       .  A
O382        C394   1.270       .  A
O383        C396   1.265       .  A
C384        O389   1.273       .  A
C384        C560   1.417       .  S
C385        C408   1.448       .  S
O387        C390   1.273       .  A
O388        C390   1.269       .  A
C390        C417   1.417       .  S
O391        C396   1.262       .  A
O392        C394   1.268       .  A
C393        O395   1.268       .  A
C393        C525   1.441       .  S
C394        C433   1.441       .  S
C396        C400   1.448       .  S
C397        C398   1.214       .  T
C398        C399   1.425       .  S
C399        C400   1.214       .  T
C401        C402   1.213       .  T
C402        C403   1.424       .  S
C403        C404   1.213       .  T
C405        C406   1.214       .  T
C406        C407   1.425   1_455  S
C407        C408   1.214       .  T
C409        C410   1.213       .  T
C410        C411   1.424       .  S
C411        C412   1.213       .  T
C413        C414   1.195       .  T
C414        C415   1.396   1_654  S
C415        C416   1.195       .  T
C417        C418   1.195       .  T
C418        C419   1.396   1_655  S
C419        C420   1.195       .  T
C421        C422   1.214       .  T
C422        C423   1.425       .  S
C423        C424   1.214       .  T
C425        C426   1.214       .  T
C426        C427   1.425   1_655  S
C427        C428   1.214       .  T
C429        C430   1.195       .  T
C430        C431   1.396       .  S
C431        C432   1.195       .  T
C433        C434   1.209       .  T
C434        C435   1.418       .  S
C435        C436   1.209       .  T
C437        C438   1.195       .  T
C438        C439   1.396       .  S
C439        C440   1.195       .  T
C441        C442   1.213       .  T
C442        C443   1.425       .  S
C443        C444   1.213       .  T
C445        C446   1.209       .  T
C446        C447   1.418       .  S
C447        C448   1.209       .  T
C449        C450   1.214       .  T
C450        C451   1.425       .  S
C451        C452   1.214       .  T
C453        C454   1.214       .  T
C454        C455   1.425   1_545  S
C455        C456   1.214       .  T
C457        C458   1.209       .  T
C458        C459   1.418       .  S
C459        C460   1.209       .  T
C461        C462   1.195       .  T
C462        C463   1.396       .  S
C463        C464   1.195       .  T
C465        C466   1.195       .  T
C466        C467   1.396   1_565  S
C467        C468   1.195       .  T
C469        C470   1.209       .  T
C470        C471   1.418       .  S
C471        C472   1.209       .  T
C473        C474   1.213       .  T
C474        C475   1.425       .  S
C475        C476   1.213       .  T
C477        C478   1.195       .  T
C478        C479   1.396       .  S
C479        C480   1.195       .  T
C481        C482   1.209       .  T
C482        C483   1.418       .  S
C483        C484   1.209       .  T
C485        C486   1.195       .  T
C486        C487   1.396   1_566  S
C487        C488   1.195       .  T
C489        C490   1.214       .  T
C490        C491   1.425       .  S
C491        C492   1.214       .  T
C493        C494   1.214       .  T
C494        C495   1.425   1_565  S
C495        C496   1.214       .  T
C497        C498   1.209       .  T
C498        C499   1.418       .  S
C499        C500   1.209       .  T
C501        C502   1.195       .  T
C502        C503   1.395       .  S
C503        C504   1.195       .  T
C505        C506   1.195       .  T
C506        C507   1.395       .  S
C507        C508   1.195       .  T
C509        C510   1.209       .  T
C510        C511   1.418   1_545  S
C511        C512   1.209       .  T
C513        C514   1.209       .  T
C514        C515   1.418   1_655  S
C515        C516   1.209       .  T
C517        C518   1.195       .  T
C518        C519   1.396       .  S
C519        C520   1.195       .  T
C521        C522   1.213       .  T
C522        C523   1.425       .  S
C523        C524   1.213       .  T
C525        C526   1.209       .  T
C526        C527   1.418       .  S
C527        C528   1.209       .  T
C529        C530   1.210       .  T
C530        C531   1.418       .  S
C531        C532   1.209       .  T
C533        C534   1.213       .  T
C534        C535   1.424       .  S
C535        C536   1.213       .  T
C537        C538   1.213       .  T
C538        C539   1.425       .  S
C539        C540   1.213       .  T
C541        C542   1.195       .  T
C542        C543   1.396       .  S
C543        C544   1.195       .  T
C545        C546   1.209       .  T
C546        C547   1.418       .  S
C547        C548   1.209       .  T
C549        C550   1.210       .  T
C550        C551   1.418       .  S
C551        C552   1.210       .  T
C553        C554   1.195       .  T
C554        C555   1.395       .  S
C555        C556   1.195       .  T
C557        C558   1.195       .  T
C558        C559   1.395       .  S
C559        C560   1.195       .  T
C561        C562   1.209       .  T
C562        C563   1.418   1_545  S
C563        C564   1.209       .  T
C565        C566   1.209       .  T
C566        C567   1.418   1_455  S
C567        C568   1.209       .  T
C569        C570   1.195       .  T
C570        C571   1.396       .  S
C571        C572   1.195       .  T
C573        C574   1.213       .  T
C574        C575   1.425       .  S
C575        C576   1.213       .  T
C577        C578   1.196       .  T
C578        C579   1.396   1_554  S
C579        C580   1.196       .  T
C581        C582   1.210       .  T
C582        C583   1.418       .  S
C583        C584   1.210       .  T
C585        C586   1.209       .  T
C586        C587   1.418       .  S
C587        C588   1.209       .  T
C589        C590   1.213       .  T
C590        C591   1.424       .  S
C591        C592   1.213       .  T
C593        C594   1.213       .  T
C594        C595   1.425       .  S
C595        C596   1.213       .  T
C597        C598   1.195       .  T
C598        C599   1.396       .  S
C599        C600   1.195       .  T
C601        C602   1.195       .  T
C602        C603   1.396       .  S
C603        C604   1.195       .  T
C605        C606   1.210       .  T
C606        C607   1.418       .  S
C607        C608   1.210       .  T
C609        C610   1.209       .  T
C610        C611   1.418       .  S
C611        C612   1.209       .  T
