geometry optimzed in LAMMPS
_audit_creation_date              2020-12-01 
_audit_creation_method            'lammps2cif' 
_symmetry_space_group_name_H-M    'P1' 
_symmetry_Int_Tables_number       1 
_symmetry_cell_setting            triclinic 
loop_ 
_symmetry_equiv_pos_as_xyz 
  x,y,z 
_cell_length_a                    49.16798263 
_cell_length_b                    49.17553030602942 
_cell_length_c                    52.93215627820232 
_cell_angle_alpha                 90.49264724426739 
_cell_angle_beta                  89.78964519731797 
_cell_angle_gamma                 89.91292692185466 
loop_ 
_atom_site_label 
_atom_site_type_symbol 
_atom_site_fract_x 
_atom_site_fract_y 
_atom_site_fract_z 
_atom_site_charge 
O1          O  0.22458623  0.71610130  0.21499347    -0.72800
O2          O  0.23813279  0.78659614  0.25249526    -0.73800
O3          O  0.26588860  0.75745530  0.21318057    -0.62400
O4          O  0.19743021  0.74563998  0.25370443    -0.70800
O5          O  0.22064028  0.72247187  0.28199898    -0.70300
O6          O  0.28952549  0.73550243  0.24212113    -0.61600
O7          O  0.26179807  0.76424592  0.28103957    -0.74100
O8          O  0.24943889  0.69470954  0.24315586    -0.72900
Cu9        Cu  0.23072308  0.75226300  0.23258157     1.04600
Cu10       Cu  0.25612603  0.72854658  0.26310419     1.04300
C11         C  0.23475786  0.69401280  0.22335222     0.93400
C12         C  0.25223519  0.78660233  0.27274323     0.92600
C13         C  0.28860980  0.74836133  0.22126639     0.84700
C14         C  0.19792503  0.73155565  0.27386457     0.91000
C15         C  0.51611865  0.77806739  0.13084653     0.03300
C16         C  0.49076893  0.77444736  0.14266695    -0.12900
C17         C  0.46690725  0.77279634  0.12825602     0.00800
C18         C  0.46854978  0.77442890  0.10185038    -0.11400
C19         C  0.49369400  0.77856009  0.08973539     0.03300
C20         C  0.51738127  0.78075497  0.10445508    -0.10800
H21         H  0.48965679  0.77257675  0.16302476     0.08900
H22         H  0.45020260  0.77238841  0.09070717     0.06400
H23         H  0.53690169  0.78382296  0.09533614     0.06300
C24         C  0.46163188  0.77230069  0.85961786     0.03300
C25         C  0.46287363  0.77343300  0.88612097    -0.12900
C26         C  0.48799053  0.77302766  0.89865138     0.00800
C27         C  0.51202792  0.77145300  0.88430778    -0.11400
C28         C  0.51110821  0.77128788  0.85782504     0.03300
C29         C  0.48589581  0.77169791  0.84550950    -0.10800
H30         H  0.44417777  0.77450483  0.89703163     0.08900
H31         H  0.53152905  0.77082425  0.89375071     0.06400
H32         H  0.48515877  0.77141301  0.82505472     0.06300
C33         C  0.01624501  0.72189788  0.36347119     0.03300
C34         C  0.99140356  0.72168056  0.35042207    -0.12900
C35         C  0.96662413  0.72178380  0.36380013     0.00800
C36         C  0.96697642  0.72085802  0.39030273    -0.11400
C37         C  0.99164791  0.72190109  0.40365461     0.03300
C38         C  0.01620061  0.72285252  0.38997474    -0.10800
H39         H  0.99134739  0.72192140  0.32995946     0.08900
H40         H  0.94788021  0.72024209  0.40058708     0.06400
H41         H  0.03536710  0.72420990  0.39993316     0.06300
C42         C  0.96606972  0.73410464  0.63556388     0.03300
C43         C  0.96488133  0.73264365  0.60902347    -0.12900
C44         C  0.98828815  0.72603021  0.59489024     0.00800
C45         C  0.01279500  0.72083662  0.60738388    -0.11400
C46         C  0.01417993  0.72250869  0.63373632     0.03300
C47         C  0.99078925  0.72892506  0.64778931    -0.10800
H48         H  0.94596531  0.73697813  0.59942395     0.08900
H49         H  0.03100730  0.71623591  0.59652805     0.06400
H50         H  0.99194449  0.73036929  0.66820854     0.06300
O51         O  0.25364250  0.76069058  0.72038676    -0.72800
O52         O  0.24038841  0.69183576  0.75897074    -0.73800
O53         O  0.21434791  0.71764021  0.71834973    -0.62400
O54         O  0.27986336  0.73421212  0.76026926    -0.70800
O55         O  0.25435641  0.75687242  0.78804840    -0.70300
O56         O  0.18841409  0.74046015  0.74555779    -0.61600
O57         O  0.21407632  0.71439637  0.78592681    -0.74100
O58         O  0.22726881  0.78287531  0.74726743    -0.72900
Cu59       Cu  0.24795168  0.72529952  0.73857635     1.04600
Cu60       Cu  0.22019065  0.74945514  0.76770640     1.04300
C61         C  0.24273079  0.78296559  0.72785300     0.93400
C62         C  0.22441988  0.69203716  0.77810078     0.92600
C63         C  0.19095606  0.72604555  0.72548294     0.84700
C64         C  0.27765675  0.74854436  0.78036196     0.91000
C65         C  0.47719295  0.23198964  0.12922412     0.03300
C66         C  0.47773064  0.23032173  0.10265273    -0.12900
C67         C  0.50220083  0.23357580  0.08926193     0.00800
C68         C  0.52662307  0.23600167  0.10263037    -0.11400
C69         C  0.52646855  0.23749547  0.12899903     0.03300
C70         C  0.50173361  0.23651862  0.14217339    -0.10800
H71         H  0.45901705  0.22718847  0.09232171     0.08900
H72         H  0.54575374  0.23745359  0.09246062     0.06400
H73         H  0.50172336  0.23874969  0.16255059     0.06300
C74         C  0.53936277  0.22708371  0.85952408     0.03300
C75         C  0.53951678  0.23180740  0.88566934    -0.12900
C76         C  0.51559536  0.22912108  0.89994203     0.00800
C77         C  0.49127494  0.22233765  0.88759099    -0.11400
C78         C  0.49051151  0.21946859  0.86125106     0.03300
C79         C  0.51474557  0.22132113  0.84723377    -0.10800
H80         H  0.55832007  0.23755221  0.89487394     0.08900
H81         H  0.47259424  0.22044668  0.89839666     0.06400
H82         H  0.51434580  0.21892865  0.82687789     0.06300
C83         C  0.24060079  0.46248131  0.13557372     0.03300
C84         C  0.23828356  0.46158572  0.10918070    -0.12900
C85         C  0.23773594  0.48567059  0.09516081     0.00800
C86         C  0.23927171  0.51079898  0.10784827    -0.11400
C87         C  0.24055628  0.51197328  0.13428343     0.03300
C88         C  0.24171417  0.48773248  0.14807815    -0.10800
H89         H  0.23664917  0.44208122  0.09956965     0.08900
H90         H  0.23848059  0.52948976  0.09719714     0.06400
H91         H  0.24267488  0.48852195  0.16852661     0.06300
C92         C  0.21834889  0.51262277  0.86586504     0.03300
C93         C  0.21787849  0.51204906  0.89234487    -0.12900
C94         C  0.22298972  0.48767990  0.90515698     0.00800
C95         C  0.22793062  0.46381586  0.89117618    -0.11400
C96         C  0.22726729  0.46414954  0.86474960     0.03300
C97         C  0.22268574  0.48856621  0.85209837    -0.10800
H98         H  0.21432548  0.53070917  0.90295710     0.08900
H99         H  0.23215231  0.44495873  0.90083427     0.06400
H100        H  0.22286271  0.48892001  0.83162628     0.06300
C101        C  0.97737189  0.27244907  0.36174619     0.03300
C102        C  0.97720948  0.27244805  0.38827480    -0.12900
C103        C  0.00177111  0.27337654  0.40176151     0.00800
C104        C  0.02646789  0.27398244  0.38840494    -0.11400
C105        C  0.02684512  0.27278435  0.36197084     0.03300
C106        C  0.00223195  0.27247528  0.34866125    -0.10800
H107        H  0.95800779  0.27158463  0.39837082     0.08900
H108        H  0.04552007  0.27440661  0.39864288     0.06400
H109        H  0.00242957  0.27167461  0.32819640     0.06300
C110        C  0.04217081  0.27456547  0.63088458     0.03300
C111        C  0.04069464  0.27439399  0.60440888    -0.12900
C112        C  0.01551737  0.27752965  0.59224558     0.00800
C113        C  0.99180601  0.28069773  0.60688267    -0.11400
C114        C  0.99299970  0.27986923  0.63331591     0.03300
C115        C  0.01827438  0.27719956  0.64525326    -0.10800
H116        H  0.05906255  0.27149750  0.59331270     0.08900
H117        H  0.97225094  0.28270854  0.59766962     0.06400
H118        H  0.01926203  0.27642327  0.66568772     0.06300
C119        C  0.28222314  0.96269765  0.36847545     0.03300
C120        C  0.28564867  0.96276129  0.39480228    -0.12900
C121        C  0.28543801  0.98740270  0.40854669     0.00800
C122        C  0.28291601  0.01199242  0.39538119    -0.11400
C123        C  0.28067445  0.01205924  0.36895825     0.03300
C124        C  0.28006146  0.98735391  0.35563260    -0.10800
H125        H  0.28743232  0.94362712  0.40464176     0.08900
H126        H  0.28232000  0.03112925  0.40571844     0.06400
H127        H  0.27729465  0.98730138  0.33532747     0.06300
C128        C  0.28232519  0.00915271  0.64106203     0.03300
C129        C  0.28510539  0.01084800  0.61476717    -0.12900
C130        C  0.28243569  0.98749530  0.59955255     0.00800
C131        C  0.27765847  0.96225864  0.61105461    -0.11400
C132        C  0.27584089  0.96037881  0.63745256     0.03300
C133        C  0.27795055  0.98392371  0.65236291    -0.10800
H134        H  0.28870479  0.03041013  0.60613789     0.08900
H135        H  0.27546614  0.94407934  0.59949239     0.06400
H136        H  0.27586120  0.98265746  0.67271607     0.06300
O137        O  0.24242046  0.26156011  0.78711027    -0.72800
O138        O  0.25383526  0.18986930  0.75204511    -0.73800
O139        O  0.28230612  0.21859183  0.79046183    -0.62400
O140        O  0.21485089  0.23223381  0.74871027    -0.70800
O141        O  0.23985246  0.25345514  0.72030064    -0.70300
O142        O  0.30702974  0.23861995  0.76088576    -0.61600
O143        O  0.27904091  0.21004984  0.72313505    -0.74100
O144        O  0.26857178  0.28147764  0.75871384    -0.72900
Cu145      Cu  0.24748151  0.22489644  0.77065088     1.04600
Cu146      Cu  0.27442291  0.24660158  0.73975665     1.04300
C147        C  0.25342603  0.28301544  0.77831531     0.93400
C148        C  0.26864833  0.18843850  0.73222914     0.92600
C149        C  0.30548527  0.22584618  0.78173047     0.84700
C150        C  0.21659645  0.24536052  0.72801810     0.91000
O151        O  0.25994242  0.28280021  0.24856574    -0.72800
O152        O  0.26844719  0.21164487  0.28436394    -0.73800
O153        O  0.29964437  0.24101003  0.24889277    -0.62400
O154        O  0.22877417  0.25346417  0.28442388    -0.70800
O155        O  0.20732268  0.23146000  0.25362556    -0.70300
O156        O  0.27828633  0.22162246  0.21678361    -0.61600
O157        O  0.24821150  0.19054496  0.25302413    -0.74100
O158        O  0.23724904  0.26198763  0.21791542    -0.72900
Cu159      Cu  0.26492818  0.24791037  0.26764051     1.04600
Cu160      Cu  0.24202640  0.22557934  0.23427263     1.04300
C161        C  0.24723785  0.28366655  0.22755799     0.93400
C162        C  0.25977022  0.18954941  0.27456165     0.92600
C163        C  0.30026182  0.23014936  0.22691744     0.84700
C164        C  0.20686066  0.24441813  0.27464018     0.91000
O165        O  0.75365777  0.21073529  0.25006257    -0.72800
O166        O  0.77013056  0.28070860  0.21354306    -0.73800
O167        O  0.79695762  0.24883323  0.24994904    -0.62400
O168        O  0.72643215  0.24197727  0.21259857    -0.70800
O169        O  0.70534720  0.26575835  0.24254651    -0.70300
O170        O  0.77608186  0.27194831  0.28052845    -0.61600
O171        O  0.74866971  0.30351480  0.24363043    -0.74100
O172        O  0.73175642  0.23415896  0.27945802    -0.72900
Cu173      Cu  0.76246446  0.24473441  0.23045588     1.04600
Cu174      Cu  0.73977654  0.26962345  0.26260167     1.04300
C175        C  0.73992958  0.21134051  0.27064596     0.93400
C176        C  0.76223981  0.30340219  0.22303418     0.92600
C177        C  0.79777375  0.26167153  0.27097082     0.84700
C178        C  0.70473004  0.25269095  0.22158661     0.91000
C179        C  0.76252556  0.53275008  0.13535908     0.03300
C180        C  0.76517340  0.50791989  0.14784159    -0.12900
C181        C  0.76914014  0.48382664  0.13401577     0.00800
C182        C  0.77136780  0.48475088  0.10761006    -0.11400
C183        C  0.76807351  0.50945945  0.09476474     0.03300
C184        C  0.76314109  0.53336008  0.10886194    -0.10800
H185        H  0.76418120  0.50734968  0.16829233     0.08900
H186        H  0.77523641  0.46619121  0.09708447     0.06400
H187        H  0.76045404  0.55259055  0.09926225     0.06300
C188        C  0.78377546  0.48954658  0.86322228     0.03300
C189        C  0.78203031  0.48879856  0.88965707    -0.12900
C190        C  0.78128665  0.51300102  0.90391200     0.00800
C191        C  0.78173419  0.53804808  0.89135873    -0.11400
C192        C  0.78247250  0.53900212  0.86488330     0.03300
C193        C  0.78379395  0.51466167  0.85085580    -0.10800
H194        H  0.78146628  0.46936986  0.89912609     0.08900
H195        H  0.78105877  0.55686730  0.90220282     0.06400
H196        H  0.78469698  0.51526742  0.83041120     0.06300
C197        C  0.71836343  0.03588000  0.36674472     0.03300
C198        C  0.71646356  0.03612464  0.39322451    -0.12900
C199        C  0.71839233  0.01173430  0.40683017     0.00800
C200        C  0.72143411  0.98710359  0.39352502    -0.11400
C201        C  0.72178381  0.98665852  0.36708684     0.03300
C202        C  0.72054285  0.01104959  0.35371384    -0.10800
H203        H  0.71441345  0.05536280  0.40324351     0.08900
H204        H  0.72329860  0.96819577  0.40372797     0.06400
H205        H  0.72167953  0.01074262  0.33326388     0.06300
C206        C  0.71941676  0.98788946  0.63842585     0.03300
C207        C  0.71759657  0.98691673  0.61197673    -0.12900
C208        C  0.72027218  0.01081913  0.59780311     0.00800
C209        C  0.72432312  0.03572137  0.61041224    -0.11400
C210        C  0.72536367  0.03682805  0.63685146     0.03300
C211        C  0.72304725  0.01288622  0.65078571    -0.10800
H212        H  0.71468618  0.96753802  0.60243636     0.08900
H213        H  0.72666990  0.05422806  0.59966999     0.06400
H214        H  0.72448069  0.01365433  0.67121858     0.06300
O215        O  0.75081145  0.23697254  0.72062139    -0.72800
O216        O  0.76617426  0.30625479  0.75812648    -0.73800
O217        O  0.79417188  0.27596463  0.72067034    -0.62400
O218        O  0.72341519  0.26737947  0.75774210    -0.70800
O219        O  0.74445359  0.24411304  0.78761188    -0.70300
O220        O  0.81531936  0.25224991  0.75003160    -0.61600
O221        O  0.78815817  0.28355103  0.78761831    -0.74100
O222        O  0.77245811  0.21375988  0.74975323    -0.72900
Cu223      Cu  0.75797209  0.27246557  0.73830737     1.04600
Cu224      Cu  0.78080353  0.24765049  0.76987782     1.04300
C225        C  0.75874986  0.21418546  0.72929528     0.93400
C226        C  0.78012540  0.30614244  0.77842489     0.92600
C227        C  0.81600306  0.26560415  0.72945658     0.84700
C228        C  0.72258678  0.25363887  0.77807673     0.91000
O229        O  0.72101466  0.78284539  0.28699513    -0.72800
O230        O  0.73299214  0.71201895  0.25019481    -0.73800
O231        O  0.76249494  0.74158529  0.28773045    -0.62400
O232        O  0.69233839  0.75307001  0.24938081    -0.70800
O233        O  0.71486049  0.77623160  0.22061049    -0.70300
O234        O  0.78519198  0.76189800  0.25694523    -0.61600
O235        O  0.75490153  0.73356239  0.21974390    -0.74100
O236        O  0.74559463  0.80380111  0.25814431    -0.72900
Cu237      Cu  0.72644450  0.74663929  0.26965125     1.04600
Cu238      Cu  0.75087517  0.76961296  0.23782411     1.04300
C239        C  0.73142201  0.80468074  0.27840896     0.93400
C240        C  0.74575895  0.71150616  0.22913484     0.92600
C241        C  0.78500664  0.74952228  0.27805495     0.84700
C242        C  0.69237221  0.76690857  0.22903373     0.91000
O243        O  0.76438039  0.74335080  0.78973030    -0.72800
O244        O  0.74466155  0.81249944  0.75411280    -0.73800
O245        O  0.71702288  0.77798282  0.78826238    -0.62400
O246        O  0.79118187  0.77863379  0.75579080    -0.70800
O247        O  0.77449941  0.75539406  0.72326791    -0.70300
O248        O  0.70107276  0.75297877  0.75666224    -0.61600
O249        O  0.72683713  0.78871698  0.72287343    -0.74100
O250        O  0.74822922  0.71946695  0.75761980    -0.72900
Cu251      Cu  0.75482896  0.77888611  0.77314241     1.04600
Cu252      Cu  0.73716484  0.75326918  0.73899537     1.04300
C253        C  0.75976874  0.72033057  0.77921746     0.93400
C254        C  0.73226815  0.81173953  0.73295898     0.92600
C255        C  0.69718411  0.76589392  0.77738741     0.84700
C256        C  0.79442416  0.76721736  0.73424258     0.91000
C257        C  0.72945478  0.06303516  0.65004260     0.01500
C258        C  0.75568018  0.07440413  0.65150180     0.04300
C259        C  0.75966471  0.09916840  0.66442163    -0.11700
C260        C  0.73746599  0.11247028  0.67608325     0.23600
C261        C  0.71123272  0.10107251  0.67464153    -0.12300
C262        C  0.70721458  0.07640775  0.66154779     0.05000
C263        C  0.74176910  0.13850956  0.68981303     0.27400
C264        C  0.74667436  0.13850131  0.71592218    -0.13000
C265        C  0.75099912  0.16316059  0.72901933     0.05500
C266        C  0.75197255  0.18818749  0.71570326    -0.09000
C267        C  0.74627666  0.18789570  0.68931182     0.06400
C268        C  0.74093682  0.16315971  0.67666775    -0.13300
Br269      Br  0.68092096  0.11934140  0.69066539    -0.05400
Br270      Br  0.78618694  0.05563069  0.63629448     0.00200
Br271      Br  0.75328805  0.16178513  0.76547578     0.00700
Br272      Br  0.73247418  0.16265486  0.64101350    -0.03700
Br273      Br  0.67123179  0.06103514  0.65901408     0.00800
Br274      Br  0.79551518  0.11491499  0.66633413    -0.03000
Br275      Br  0.74745924  0.10428671  0.73361794    -0.03900
Br276      Br  0.74594618  0.22062860  0.66933102     0.00100
C277        C  0.71910453  0.96262418  0.65326402     0.01500
C278        C  0.74385397  0.94990191  0.65947499     0.04300
C279        C  0.74378145  0.92595565  0.67377510    -0.11700
C280        C  0.71895564  0.91466431  0.68189423     0.23600
C281        C  0.69422141  0.92772479  0.67617893    -0.12300
C282        C  0.69430036  0.95167689  0.66180169     0.05000
C283        C  0.71901379  0.88827797  0.69525793     0.27400
C284        C  0.71823866  0.86392437  0.68122535    -0.13000
C285        C  0.72118451  0.83870964  0.69336251     0.05500
C286        C  0.72491966  0.83774299  0.72002151    -0.09000
C287        C  0.72286556  0.86242833  0.73416473     0.06400
C288        C  0.72076530  0.88753055  0.72170524    -0.13300
Br289      Br  0.66037141  0.91262103  0.68800098    -0.05400
Br290      Br  0.77783810  0.96524972  0.64816441     0.00200
Br291      Br  0.72022425  0.80631408  0.67239981     0.00700
Br292      Br  0.72097386  0.92124337  0.74071032    -0.03700
Br293      Br  0.66055743  0.96957032  0.65370032     0.00800
Br294      Br  0.77764880  0.90838878  0.68218203    -0.03000
Br295      Br  0.71390831  0.86553895  0.64496761    -0.03900
Br296      Br  0.72084196  0.86265732  0.77069012     0.00100
C297        C  0.72745852  0.83123772  0.29182788     0.01500
C298        C  0.72498874  0.83273643  0.31857863     0.04300
C299        C  0.72487023  0.85821782  0.33095643    -0.11700
C300        C  0.72625419  0.88228309  0.31688509     0.23600
C301        C  0.72712060  0.88105381  0.29038375    -0.12300
C302        C  0.72719051  0.85574320  0.27782901     0.05000
C303        C  0.72526964  0.90906813  0.32986049     0.27400
C304        C  0.69991747  0.92108438  0.33551859    -0.13000
C305        C  0.69883496  0.94673420  0.34736213     0.05500
C306        C  0.72308929  0.96040309  0.35353406    -0.09000
C307        C  0.74844610  0.94856420  0.34765255     0.06400
C308        C  0.74954916  0.92280376  0.33593902    -0.13300
Br309      Br  0.72820517  0.91439800  0.27135749    -0.05400
Br310      Br  0.72109895  0.80062229  0.33902626     0.00200
Br311      Br  0.66415946  0.96329087  0.35511841     0.00700
Br312      Br  0.78418989  0.90615103  0.32832457    -0.03700
Br313      Br  0.72418519  0.85537711  0.24139355     0.00800
Br314      Br  0.72316164  0.86049167  0.36740040    -0.03000
Br315      Br  0.66673344  0.90227101  0.32701490    -0.03900
Br316      Br  0.78152770  0.96782134  0.35555417     0.00100
C317        C  0.71815787  0.01181024  0.43494605     0.01500
C318        C  0.69883882  0.99611914  0.44829628     0.04300
C319        C  0.69985327  0.99477857  0.47482740    -0.11700
C320        C  0.71880275  0.01061742  0.48833446     0.23600
C321        C  0.73753693  0.02692575  0.47515993    -0.12300
C322        C  0.73791618  0.02673319  0.44856969     0.05000
C323        C  0.71893044  0.01021129  0.51640956     0.27400
C324        C  0.69901597  0.02478695  0.53016290    -0.13000
C325        C  0.69883858  0.02411395  0.55673591     0.05500
C326        C  0.71939803  0.00993085  0.56976845    -0.09000
C327        C  0.73960230  0.99569228  0.55594001     0.06400
C328        C  0.73894913  0.99530322  0.52934962    -0.13300
Br329      Br  0.76264809  0.04965078  0.49366594    -0.05400
Br330      Br  0.67011125  0.97726124  0.43058977     0.00200
Br331      Br  0.66978235  0.04188314  0.57518466     0.00700
Br332      Br  0.76544868  0.97429340  0.51051837    -0.03700
Br333      Br  0.76682786  0.04544518  0.43110250     0.00800
Br334      Br  0.67561921  0.97082422  0.49281522    -0.03000
Br335      Br  0.67222611  0.04606445  0.51248235    -0.03900
Br336      Br  0.76911460  0.97790759  0.57322742     0.00100
C337        C  0.78686443  0.33263279  0.79084026     0.01500
C338        C  0.79220197  0.35570748  0.77571013     0.04300
C339        C  0.79372766  0.38178059  0.78679079    -0.11700
C340        C  0.79115940  0.38495508  0.81310506     0.23600
C341        C  0.78884057  0.36186177  0.82848844    -0.12300
C342        C  0.78669979  0.33573832  0.81748926     0.05000
C343        C  0.78951646  0.41258871  0.82458778     0.27400
C344        C  0.81334487  0.42675983  0.83131119    -0.13000
C345        C  0.81144789  0.45240326  0.84324666     0.05500
C346        C  0.78574298  0.46380078  0.84868859    -0.09000
C347        C  0.76194687  0.44991683  0.84146035     0.06400
C348        C  0.76382826  0.42440845  0.82932696    -0.13300
Br349      Br  0.78788708  0.36640684  0.86475943    -0.05400
Br350      Br  0.79926145  0.35181816  0.73988902     0.00200
Br351      Br  0.84398745  0.47185465  0.85256189     0.00700
Br352      Br  0.73123081  0.40534433  0.81943495    -0.03700
Br353      Br  0.78286650  0.30488374  0.83943516     0.00800
Br354      Br  0.79865297  0.41341711  0.76593514    -0.03000
Br355      Br  0.84846249  0.41069900  0.82460280    -0.03900
Br356      Br  0.72680710  0.46575761  0.84857741     0.00100
C357        C  0.78109891  0.56554782  0.85190789     0.01500
C358        C  0.75687017  0.57354216  0.83984765     0.04300
C359        C  0.75533554  0.59892179  0.82784038    -0.11700
C360        C  0.77801240  0.61642189  0.82777956     0.23600
C361        C  0.80222341  0.60848102  0.83987464    -0.12300
C362        C  0.80370126  0.58317609  0.85207921     0.05000
C363        C  0.77592710  0.64351870  0.81565809     0.27400
C364        C  0.77995994  0.64610967  0.78947439    -0.13000
C365        C  0.77572733  0.67136110  0.77766567     0.05500
C366        C  0.76739232  0.69442001  0.79209196    -0.09000
C367        C  0.76551539  0.69199922  0.81877328     0.06400
C368        C  0.76913995  0.66653488  0.83030771    -0.13300
Br369      Br  0.83327048  0.63239866  0.83970092    -0.05400
Br370      Br  0.72535525  0.55021465  0.84074509     0.00200
Br371      Br  0.78322036  0.67415905  0.74190088     0.00700
Br372      Br  0.76390172  0.66271967  0.86631560    -0.03700
Br373      Br  0.83669837  0.57257380  0.86900460     0.00800
Br374      Br  0.72198761  0.61009602  0.81181992    -0.03000
Br375      Br  0.79111910  0.61469170  0.76988442    -0.03900
Br376      Br  0.75782806  0.72290064  0.84031997     0.00100
C377        C  0.74990450  0.68510508  0.21570254     0.01500
C378        C  0.75705969  0.66154424  0.22941123     0.04300
C379        C  0.75911946  0.63616015  0.21700403    -0.11700
C380        C  0.75498969  0.63422188  0.19075475     0.23600
C381        C  0.74902926  0.65772290  0.17685321    -0.12300
C382        C  0.74621136  0.68300957  0.18923976     0.05000
C383        C  0.75695667  0.60751046  0.17758178     0.27400
C384        C  0.78257493  0.59711919  0.17034041    -0.13000
C385        C  0.78433267  0.57238068  0.15690041     0.05500
C386        C  0.76047202  0.55828684  0.15014432    -0.09000
C387        C  0.73488099  0.56843944  0.15767473     0.06400
C388        C  0.73312648  0.59293938  0.17154022    -0.13300
Br389      Br  0.74460140  0.65502659  0.14065293    -0.05400
Br390      Br  0.76578107  0.66390274  0.26493771     0.00200
Br391      Br  0.81944216  0.55755685  0.14790181     0.00700
Br392      Br  0.69814023  0.60670216  0.18226129    -0.03700
Br393      Br  0.73599291  0.71414627  0.16959573     0.00800
Br394      Br  0.76746390  0.60381730  0.23589382    -0.03000
Br395      Br  0.81518381  0.61706334  0.17853054    -0.03900
Br396      Br  0.70234117  0.54870688  0.14893009     0.00100
C397        C  0.77965154  0.51217146  0.93194692     0.01500
C398        C  0.75722331  0.52402914  0.94468614     0.04300
C399        C  0.75627464  0.52445539  0.97125504    -0.11700
C400        C  0.77667603  0.51132539  0.98528586     0.23600
C401        C  0.79860067  0.49861346  0.97261438    -0.12300
C402        C  0.80052756  0.49972771  0.94608206     0.05000
C403        C  0.77478014  0.51064930  0.01333856     0.27400
C404        C  0.79123660  0.52787115  0.02818470    -0.13000
C405        C  0.78948923  0.52713040  0.05473927     0.05500
C406        C  0.77011507  0.51020383  0.06666213    -0.09000
C407        C  0.75305337  0.49357009  0.05160330     0.06400
C408        C  0.75603943  0.49317041  0.02513521    -0.13300
Br409      Br  0.82586099  0.47944380  0.99168976    -0.05400
Br410      Br  0.72688334  0.53833748  0.92587527     0.00200
Br411      Br  0.81478861  0.54843122  0.07447485     0.00700
Br412      Br  0.73461520  0.46843278  0.00486128    -0.03700
Br413      Br  0.83244989  0.48522428  0.92936837     0.00800
Br414      Br  0.72715422  0.54338369  0.98856495    -0.03000
Br415      Br  0.81607781  0.55268416  0.01199300    -0.03900
Br416      Br  0.72439398  0.47236418  0.06683587     0.00100
C417        C  0.76817439  0.32983424  0.21021266     0.01500
C418        C  0.77117157  0.33128054  0.18352006     0.04300
C419        C  0.77240514  0.35673264  0.17152836    -0.11700
C420        C  0.77187818  0.38089691  0.18589238     0.23600
C421        C  0.77116212  0.37970347  0.21239333    -0.12300
C422        C  0.76950577  0.35439904  0.22459164     0.05000
C423        C  0.77143427  0.40760794  0.17300144     0.27400
C424        C  0.79576937  0.41928561  0.16404486    -0.13000
C425        C  0.79505498  0.44411244  0.15100595     0.05500
C426        C  0.77005678  0.45749478  0.14723638    -0.09000
C427        C  0.74574965  0.44587899  0.15629121     0.06400
C428        C  0.74643366  0.42097160  0.16912040    -0.13300
Br429      Br  0.77208043  0.41311561  0.23186867    -0.05400
Br430      Br  0.77371134  0.29911670  0.16247095     0.00200
Br431      Br  0.82826561  0.45997201  0.13845267     0.00700
Br432      Br  0.71309285  0.40491274  0.18120419    -0.03700
Br433      Br  0.77088243  0.35418938  0.26112980     0.00800
Br434      Br  0.77384465  0.35882170  0.13509063    -0.03000
Br435      Br  0.83000955  0.40122953  0.16979905    -0.03900
Br436      Br  0.71139236  0.46375713  0.15041445     0.00100
C437        C  0.73388164  0.18557155  0.28453479     0.01500
C438        C  0.73041136  0.18562348  0.31127994     0.04300
C439        C  0.72751329  0.16094885  0.32434236    -0.11700
C440        C  0.72714981  0.13610978  0.31107285     0.23600
C441        C  0.72905168  0.13584283  0.28457675    -0.12300
C442        C  0.73205635  0.16037597  0.27126826     0.05000
C443        C  0.72472007  0.11021186  0.32512893     0.27400
C444        C  0.74835429  0.09629032  0.33268230    -0.13000
C445        C  0.74615918  0.07203362  0.34640668     0.05500
C446        C  0.72032752  0.06163601  0.35268305    -0.09000
C447        C  0.69667478  0.07550362  0.34512046     0.06400
C448        C  0.69886538  0.09981108  0.33138250    -0.13300
Br449      Br  0.72764119  0.10149235  0.26665560    -0.05400
Br450      Br  0.72918113  0.21882596  0.33107491     0.00200
Br451      Br  0.77855982  0.05297058  0.35671418     0.00700
Br452      Br  0.66657292  0.11901960  0.32111123    -0.03700
Br453      Br  0.73128696  0.15884342  0.23475940     0.00800
Br454      Br  0.72449562  0.16080513  0.36078413    -0.03000
Br455      Br  0.78371636  0.11064579  0.32428718    -0.03900
Br456      Br  0.66139188  0.06092552  0.35334874     0.00100
C457        C  0.28233116  0.03411039  0.65662598     0.01500
C458        C  0.25740761  0.04637056  0.66336365     0.04300
C459        C  0.25722193  0.07091556  0.67708620    -0.11700
C460        C  0.28195383  0.08319307  0.68412232     0.23600
C461        C  0.30688319  0.07056799  0.67799458    -0.12300
C462        C  0.30706146  0.04598047  0.66422353     0.05000
C463        C  0.28144676  0.11013772  0.69672755     0.27400
C464        C  0.28135073  0.13373288  0.68197640    -0.13000
C465        C  0.27743889  0.15934905  0.69341544     0.05500
C466        C  0.27397566  0.16154608  0.71999695    -0.09000
C467        C  0.27570571  0.13765677  0.73485171     0.06400
C468        C  0.27914124  0.11208406  0.72312525    -0.13300
Br469      Br  0.34061119  0.08732919  0.68808479    -0.05400
Br470      Br  0.22354121  0.02984012  0.65320327     0.00200
Br471      Br  0.27551735  0.19066766  0.67174748     0.00700
Br472      Br  0.28046050  0.07936847  0.74302942    -0.03700
Br473      Br  0.34102760  0.02850384  0.65562660     0.00800
Br474      Br  0.22312960  0.08821402  0.68576735    -0.03000
Br475      Br  0.28596581  0.13057538  0.64577890    -0.03900
Br476      Br  0.27473265  0.13923799  0.77138042     0.00100
C477        C  0.26297437  0.16290455  0.28832336     0.01500
C478        C  0.27469188  0.16206763  0.31304648     0.04300
C479        C  0.27714917  0.13720343  0.32592701    -0.11700
C480        C  0.26857021  0.11284436  0.31457992     0.23600
C481        C  0.25716609  0.11311294  0.29033773    -0.12300
C482        C  0.25415963  0.13779471  0.27721174     0.05000
C483        C  0.27158437  0.08679278  0.32831507     0.27400
C484        C  0.29601912  0.07188062  0.32641144    -0.13000
C485        C  0.29913805  0.04756591  0.33993903     0.05500
C486        C  0.27769759  0.03794752  0.35520433    -0.09000
C487        C  0.25314664  0.05271466  0.35686467     0.06400
C488        C  0.25017062  0.07718533  0.34357276    -0.13300
Br489      Br  0.24560982  0.07905396  0.27530101    -0.05400
Br490      Br  0.28791728  0.19409196  0.33068628     0.00200
Br491      Br  0.33299703  0.02772880  0.33801978     0.00700
Br492      Br  0.21676690  0.09765041  0.34615279    -0.03700
Br493      Br  0.23776138  0.13548618  0.24404580     0.00800
Br494      Br  0.29220044  0.13607677  0.35965365    -0.03000
Br495      Br  0.32513319  0.08490104  0.30520494    -0.03900
Br496      Br  0.22325501  0.03889877  0.37668108     0.00100
C497        C  0.28439099  0.98946454  0.57160729     0.01500
C498        C  0.30508024  0.97527257  0.55841000     0.04300
C499        C  0.30585775  0.97553236  0.53183084    -0.11700
C500        C  0.28678041  0.99102348  0.51828234     0.23600
C501        C  0.26700959  0.00641202  0.53146426    -0.12300
C502        C  0.26540683  0.00518897  0.55800388     0.05000
C503        C  0.28667937  0.99005814  0.49017689     0.27400
C504        C  0.30613177  0.00466438  0.47618883    -0.13000
C505        C  0.30669022  0.00258416  0.44961876     0.05500
C506        C  0.28640871  0.98758949  0.43671324    -0.09000
C507        C  0.26638762  0.97367913  0.45087797     0.06400
C508        C  0.26717592  0.97414105  0.47745473    -0.13300
Br509      Br  0.24192681  0.02894147  0.51298330    -0.05400
Br510      Br  0.33303993  0.95620328  0.57671355     0.00200
Br511      Br  0.33620194  0.01915763  0.43118159     0.00700
Br512      Br  0.24150587  0.95282911  0.49662400    -0.03700
Br513      Br  0.23619842  0.02393781  0.57540117     0.00800
Br514      Br  0.33263718  0.95403266  0.51386935    -0.03000
Br515      Br  0.33165002  0.02796272  0.49354051    -0.03900
Br516      Br  0.23664761  0.95527337  0.43432338     0.00100
C517        C  0.19148277  0.25126588  0.71307202    -0.04100
C518        C  0.16647279  0.25688947  0.72559124     0.04300
C519        C  0.14248016  0.26091870  0.71158085    -0.11700
C520        C  0.14317944  0.26009816  0.68502074     0.23600
C521        C  0.16800432  0.25560529  0.67239274    -0.12300
C522        C  0.19206262  0.25122758  0.68622669     0.05000
C523        C  0.11768589  0.26380321  0.67035828     0.27400
C524        C  0.10161289  0.24106145  0.66397169    -0.13000
C525        C  0.07716912  0.24455387  0.65060605     0.05500
C526        C  0.06858680  0.27081126  0.64372791    -0.09000
C527        C  0.08482887  0.29352073  0.64976353     0.06400
C528        C  0.10938256  0.29002080  0.66299596    -0.13300
Br529      Br  0.16870025  0.25516843  0.63589142    -0.05400
Br530      Br  0.16476167  0.26114777  0.76190589     0.00200
Br531      Br  0.05537461  0.21339221  0.64162932     0.00700
Br532      Br  0.13166331  0.32106448  0.67123752    -0.03700
Br533      Br  0.22524525  0.24447950  0.66764002     0.00800
Br534      Br  0.10830588  0.26760091  0.72866119    -0.03000
Br535      Br  0.11309766  0.20515680  0.67376656    -0.03900
Br536      Br  0.07318240  0.32940382  0.64006476     0.00100
C537        C  0.96756139  0.27920327  0.64835176     0.01500
C538        C  0.95199448  0.30300936  0.65212364     0.04300
C539        C  0.92758235  0.30195496  0.66611055    -0.11700
C540        C  0.91866420  0.27709027  0.67626385     0.23600
C541        C  0.93428941  0.25335194  0.67258738    -0.12300
C542        C  0.95853923  0.25434735  0.65848423     0.05000
C543        C  0.89227589  0.27546193  0.68988901     0.27400
C544        C  0.89137555  0.27767075  0.71639252    -0.13000
C545        C  0.86648315  0.27477398  0.72936567     0.05500
C546        C  0.84226524  0.26919311  0.71581436    -0.09000
C547        C  0.84338642  0.26708382  0.68912221     0.06400
C548        C  0.86825483  0.27046371  0.67628117    -0.13300
Br549      Br  0.92216064  0.21937526  0.68668916    -0.05400
Br550      Br  0.96413853  0.33697226  0.63809426     0.00200
Br551      Br  0.86590987  0.27977539  0.76562462     0.00700
Br552      Br  0.86973070  0.26778877  0.63986912    -0.03700
Br553      Br  0.97867913  0.22130826  0.65195917     0.00800
Br554      Br  0.90615340  0.33441128  0.67133877    -0.03000
Br555      Br  0.92451923  0.28458595  0.73479291    -0.03900
Br556      Br  0.81148607  0.25782249  0.66975804     0.00100
C557        C  0.18071871  0.24931962  0.28760443     0.01500
C558        C  0.15949622  0.26278716  0.27489153     0.04300
C559        C  0.13446708  0.26730690  0.28714897    -0.11700
C560        C  0.13079187  0.25897242  0.31230935     0.23600
C561        C  0.15215243  0.24605060  0.32522449    -0.12300
C562        C  0.17698600  0.24090379  0.31279622     0.05000
C563        C  0.10407008  0.26281734  0.32484148     0.27400
C564        C  0.09744038  0.28786323  0.33644430    -0.13000
C565        C  0.07185688  0.29145232  0.34802662     0.05500
C566        C  0.05311129  0.26977301  0.34850610    -0.09000
C567        C  0.06005653  0.24456106  0.33728056     0.06400
C568        C  0.08528287  0.24125850  0.32510105    -0.13300
Br569      Br  0.14716611  0.23529571  0.35991370    -0.05400
Br570      Br  0.16501266  0.27618243  0.24106829     0.00200
Br571      Br  0.06235952  0.32612098  0.36296840     0.00700
Br572      Br  0.09432580  0.20710566  0.30884138    -0.03700
Br573      Br  0.20526000  0.22095875  0.32985680     0.00800
Br574      Br  0.10500362  0.28471182  0.26949328    -0.03000
Br575      Br  0.12365723  0.31700744  0.33667534    -0.03900
Br576      Br  0.03579060  0.21393517  0.33981189     0.00100
C577        C  0.95150007  0.27168780  0.34758699     0.01500
C578        C  0.94187220  0.24688362  0.33757096     0.04300
C579        C  0.91757166  0.24622849  0.32365289    -0.11700
C580        C  0.90218202  0.27018172  0.32062009     0.23600
C581        C  0.91165991  0.29496208  0.33084180    -0.12300
C582        C  0.93648484  0.29577586  0.34399077     0.05000
C583        C  0.87529556  0.26889890  0.30798807     0.27400
C584        C  0.87246376  0.27689309  0.28263899    -0.13000
C585        C  0.84691586  0.27525219  0.27076434     0.05500
C586        C  0.82423263  0.26480136  0.28397985    -0.09000
C587        C  0.82726674  0.25663725  0.30930182     0.06400
C588        C  0.85257205  0.25915378  0.32138869    -0.13300
Br589      Br  0.89026007  0.32760981  0.32726635    -0.05400
Br590      Br  0.96128977  0.21358535  0.34393905     0.00200
Br591      Br  0.84291106  0.28838012  0.23668055     0.00700
Br592      Br  0.85631400  0.24906858  0.35640030    -0.03700
Br593      Br  0.95000269  0.32986495  0.35707385     0.00800
Br594      Br  0.90513871  0.21247785  0.30885453    -0.03000
Br595      Br  0.90374456  0.28976407  0.26417611    -0.03900
Br596      Br  0.79747809  0.24013031  0.32708288     0.00100
C597        C  0.00204078  0.27277771  0.42982692     0.01500
C598        C  0.98936765  0.29365581  0.44412605     0.04300
C599        C  0.99046262  0.29328287  0.47069725    -0.11700
C600        C  0.00600758  0.27333382  0.48308414     0.23600
C601        C  0.01905513  0.25275038  0.46882719    -0.12300
C602        C  0.01609238  0.25179155  0.44241492     0.05000
C603        C  0.00881202  0.27415942  0.51105627     0.27400
C604        C  0.02538065  0.29402210  0.52265076    -0.13000
C605        C  0.02707394  0.29560488  0.54917645     0.05500
C606        C  0.01365404  0.27617367  0.56423965    -0.09000
C607        C  0.99810543  0.25550921  0.55249135     0.06400
C608        C  0.99490766  0.25512980  0.52608495    -0.13300
Br609      Br  0.04167982  0.22626971  0.48543783    -0.05400
Br610      Br  0.97198952  0.32382806  0.42755266     0.00200
Br611      Br  0.04667312  0.32528043  0.56474427     0.00700
Br612      Br  0.97105647  0.22878812  0.51046943    -0.03700
Br613      Br  0.03035145  0.22095314  0.42371780     0.00800
Br614      Br  0.97061159  0.32010393  0.49024754    -0.03000
Br615      Br  0.04599772  0.31891201  0.50208123    -0.03900
Br616      Br  0.98222346  0.22676763  0.57232442     0.00100
C617        C  0.24857767  0.30993190  0.79058266     0.01500
C618        C  0.24642425  0.33361116  0.77556429     0.04300
C619        C  0.24365228  0.35933441  0.78710108    -0.11700
C620        C  0.24249839  0.36163500  0.81354305     0.23600
C621        C  0.24377539  0.33828332  0.82858625    -0.12300
C622        C  0.24637557  0.31245049  0.81723724     0.05000
C623        C  0.23868212  0.38857557  0.82562493     0.27400
C624        C  0.26144390  0.40433743  0.83243420    -0.13000
C625        C  0.25770571  0.42944912  0.84483474     0.05500
C626        C  0.23123451  0.43870552  0.85041426    -0.09000
C627        C  0.20847487  0.42319255  0.84318960     0.06400
C628        C  0.21219688  0.39807174  0.83085490    -0.13300
Br629      Br  0.24209716  0.34202369  0.86494938    -0.05400
Br630      Br  0.24477433  0.33125834  0.73910228     0.00200
Br631      Br  0.28870343  0.45119561  0.85434395     0.00700
Br632      Br  0.18113311  0.37629046  0.82154775    -0.03700
Br633      Br  0.24664673  0.28112822  0.83890484     0.00800
Br634      Br  0.24117056  0.39170137  0.76681131    -0.03000
Br635      Br  0.29762777  0.39117268  0.82515411    -0.03900
Br636      Br  0.17226305  0.43624950  0.85061116     0.00100
C637        C  0.24075167  0.43686528  0.15007713     0.01500
C638        C  0.26508547  0.42732059  0.16090995     0.04300
C639        C  0.26542442  0.40230645  0.17365823    -0.11700
C640        C  0.24135150  0.38697533  0.17598459     0.23600
C641        C  0.21693133  0.39674740  0.16555277    -0.12300
C642        C  0.21666139  0.42154514  0.15247223     0.05000
C643        C  0.24185867  0.36035019  0.18904477     0.27400
C644        C  0.24892451  0.33657425  0.17552676    -0.13000
C645        C  0.25061921  0.31147491  0.18803914     0.05500
C646        C  0.24450219  0.30989501  0.21413111    -0.09000
C647        C  0.23644860  0.33366948  0.22741525     0.06400
C648        C  0.23555430  0.35885821  0.21496417    -0.13300
Br649      Br  0.18392758  0.37595768  0.16912184    -0.05400
Br650      Br  0.29811401  0.44816030  0.15764722     0.00200
Br651      Br  0.26300209  0.27977907  0.16945777     0.00700
Br652      Br  0.22586908  0.39154316  0.23334415    -0.03700
Br653      Br  0.18319942  0.43472165  0.13803109     0.00800
Br654      Br  0.29892004  0.38867032  0.18762756    -0.03000
Br655      Br  0.25653819  0.33864296  0.13978780    -0.03900
Br656      Br  0.22521179  0.33175517  0.26235640     0.00100
C657        C  0.23451155  0.48467757  0.06729284     0.01500
C658        C  0.21190196  0.49735162  0.05585111     0.04300
C659        C  0.20961700  0.49769854  0.02937920    -0.11700
C660        C  0.22898568  0.48403953  0.01424421     0.23600
C661        C  0.25079960  0.47022098  0.02563513    -0.12300
C662        C  0.25404861  0.47122144  0.05202011     0.05000
C663        C  0.22707419  0.48512591  0.98630380     0.27400
C664        C  0.20819348  0.46870577  0.97330151    -0.13000
C665        C  0.20610206  0.47030381  0.94685006     0.05500
C666        C  0.22403789  0.48715293  0.93314408    -0.09000
C667        C  0.24349149  0.50296219  0.94621090     0.06400
C668        C  0.24433855  0.50262565  0.97274389    -0.13300
Br669      Br  0.27628227  0.45000359  0.00491335    -0.05400
Br670      Br  0.18333480  0.51338448  0.07627749     0.00200
Br671      Br  0.17792205  0.45012870  0.92963996     0.00700
Br672      Br  0.26907173  0.52631101  0.99066845    -0.03700
Br673      Br  0.28621252  0.45553706  0.06688212     0.00800
Br674      Br  0.18026054  0.51741021  0.01371573    -0.03000
Br675      Br  0.18549032  0.44375725  0.99179540    -0.03900
Br676      Br  0.27024553  0.52381880  0.92791959     0.00100
C677        C  0.33114303  0.21915642  0.79508159     0.01500
C678        C  0.35282154  0.20704063  0.78139848     0.04300
C679        C  0.37875689  0.20476635  0.79237151    -0.11700
C680        C  0.38312184  0.21415546  0.81721736     0.23600
C681        C  0.36110055  0.22428466  0.83158593    -0.12300
C682        C  0.33512511  0.22659514  0.82062846     0.05000
C683        C  0.41110323  0.21491790  0.82773591     0.27400
C684        C  0.42257198  0.19166177  0.83890871    -0.13000
C685        C  0.44898621  0.19279390  0.84912360     0.05500
C686        C  0.46382917  0.21729002  0.84851471    -0.09000
C687        C  0.45220183  0.24059493  0.83755377     0.06400
C688        C  0.42608273  0.23931010  0.82689152    -0.13300
Br689      Br  0.36699627  0.23599604  0.86604544    -0.05400
Br690      Br  0.34684043  0.19255832  0.74783252     0.00200
Br691      Br  0.46485054  0.16093025  0.86413718     0.00700
Br692      Br  0.41050505  0.27115351  0.81146972    -0.03700
Br693      Br  0.30563120  0.24104422  0.84053046     0.00800
Br694      Br  0.40864851  0.18962622  0.77313811    -0.03000
Br695      Br  0.40173133  0.15855093  0.84069888    -0.03900
Br696      Br  0.47138286  0.27478766  0.83847281     0.00100
C697        C  0.56512896  0.22915767  0.84522132     0.01500
C698        C  0.58354373  0.20714490  0.84484363     0.04300
C699        C  0.60927326  0.21005398  0.83345440    -0.11700
C700        C  0.61649905  0.23488048  0.82218720     0.23600
C701        C  0.59780657  0.25661808  0.82195807    -0.12300
C702        C  0.57225200  0.25383916  0.83365450     0.05000
C703        C  0.64403206  0.23851767  0.81120825     0.27400
C704        C  0.66518101  0.24897633  0.82627875    -0.13000
C705        C  0.69103025  0.25364768  0.81565496     0.05500
C706        C  0.69584336  0.24787174  0.78985426    -0.09000
C707        C  0.67475435  0.23656791  0.77499960     0.06400
C708        C  0.64889034  0.23211054  0.78563850    -0.13300
Br709      Br  0.60758487  0.29038923  0.80605287    -0.05400
Br710      Br  0.57357524  0.17314912  0.86021606     0.00200
Br711      Br  0.71925212  0.26909267  0.83635259     0.00700
Br712      Br  0.61987946  0.21736318  0.76525704    -0.03700
Br713      Br  0.54745158  0.28421657  0.83484200     0.00800
Br714      Br  0.63496384  0.18036763  0.83372729    -0.03000
Br715      Br  0.65839039  0.25727665  0.86145820    -0.03900
Br716      Br  0.68145436  0.22574758  0.74034734     0.00100
C717        C  0.45103620  0.22944379  0.14343579     0.01500
C718        C  0.44875296  0.21118859  0.16396256     0.04300
C719        C  0.42468625  0.21037209  0.17845138    -0.11700
C720        C  0.40186982  0.22564531  0.17112494     0.23600
C721        C  0.40341018  0.24242148  0.14976891    -0.12300
C722        C  0.42820510  0.24547109  0.13679100     0.05000
C723        C  0.37661139  0.22555481  0.18657884     0.27400
C724        C  0.35756431  0.20436929  0.18403681    -0.13000
C725        C  0.33278610  0.20542738  0.19750631     0.05500
C726        C  0.32657101  0.22825580  0.21303612    -0.09000
C727        C  0.34572798  0.24969266  0.21509850     0.06400
C728        C  0.37093558  0.24781459  0.20260934    -0.13300
Br729      Br  0.37133433  0.26154526  0.13857196    -0.05400
Br730      Br  0.47774579  0.18609058  0.17185607     0.00200
Br731      Br  0.30804773  0.17505079  0.19482223     0.00700
Br732      Br  0.39788284  0.27600909  0.20714477    -0.03700
Br733      Br  0.43090397  0.27356689  0.11158328     0.00800
Br734      Br  0.42309489  0.18901070  0.20885486    -0.03000
Br735      Br  0.36544149  0.17410277  0.16170210    -0.03900
Br736      Br  0.33704025  0.28315894  0.23288030     0.00100
C737        C  0.67863912  0.24987189  0.20776395     0.01500
C738        C  0.67734872  0.25488921  0.18150894     0.04300
C739        C  0.65243192  0.25275593  0.16864710    -0.11700
C740        C  0.62858668  0.24598203  0.18191585     0.23600
C741        C  0.62974739  0.24067428  0.20797783    -0.12300
C742        C  0.65472412  0.24224772  0.22083236     0.05000
C743        C  0.60233662  0.24390259  0.16832651     0.27400
C744        C  0.58655328  0.26739052  0.16414374    -0.13000
C745        C  0.56162238  0.26532217  0.15131207     0.05500
C746        C  0.55241483  0.23976737  0.14275527    -0.09000
C747        C  0.56829167  0.21633062  0.14673643     0.06400
C748        C  0.59326068  0.21840402  0.15945097    -0.13300
Br749      Br  0.59694122  0.23106414  0.22592519    -0.05400
Br750      Br  0.70923192  0.26573792  0.16294284     0.00200
Br751      Br  0.54028663  0.29747021  0.14491369     0.00700
Br752      Br  0.61527810  0.18642067  0.16453509    -0.03700
Br753      Br  0.65621488  0.23204281  0.25596214     0.00800
Br754      Br  0.65075093  0.25902243  0.13270610    -0.03000
Br755      Br  0.59928916  0.30235537  0.17584538    -0.03900
Br756      Br  0.55568198  0.18137672  0.13481281     0.00100
C757        C  0.50242957  0.23588548  0.06133488     0.01500
C758        C  0.49320445  0.21427334  0.04589787     0.04300
C759        C  0.49458798  0.21644414  0.01945181    -0.11700
C760        C  0.50691918  0.23931013  0.00833628     0.23600
C761        C  0.51604865  0.26093907  0.02366210    -0.12300
C762        C  0.51279631  0.25970874  0.05002115     0.05000
C763        C  0.51143879  0.23962882  0.98063110     0.27400
C764        C  0.53163071  0.22273211  0.96992846    -0.13000
C765        C  0.53298367  0.21899510  0.94360222     0.05500
C766        C  0.51562327  0.23406677  0.92768287    -0.09000
C767        C  0.49745151  0.25328931  0.93849458     0.06400
C768        C  0.49458299  0.25521176  0.96489552    -0.13300
Br769      Br  0.53398416  0.29174731  0.00861116    -0.05400
Br770      Br  0.48037773  0.18090067  0.06069106     0.00200
Br771      Br  0.55713702  0.19148610  0.93002878     0.00700
Br772      Br  0.46688322  0.27841287  0.97949369    -0.03700
Br773      Br  0.52168018  0.29120511  0.07043554     0.00800
Br774      Br  0.47998028  0.18786591  0.99824958    -0.03000
Br775      Br  0.55709901  0.20429918  0.99162668    -0.03900
Br776      Br  0.47705101  0.27776938  0.91734366     0.00100
C777        C  0.24819446  0.80908233  0.71426820     0.01500
C778        C  0.24567528  0.83456429  0.72714486     0.04300
C779        C  0.25009979  0.85907534  0.71417296    -0.11700
C780        C  0.25780455  0.85864929  0.68861001     0.23600
C781        C  0.26113658  0.83372792  0.67583748    -0.12300
C782        C  0.25622300  0.80904281  0.68837723     0.05000
C783        C  0.26254812  0.88454623  0.67510080     0.27400
C784        C  0.24098371  0.89724730  0.66226885    -0.13000
C785        C  0.24537120  0.92197824  0.64973336     0.05500
C786        C  0.27143163  0.93385704  0.64970607    -0.09000
C787        C  0.29308161  0.92098153  0.66228560     0.06400
C788        C  0.28860019  0.89644550  0.67510984    -0.13300
Br789      Br  0.27249785  0.83378021  0.64083095    -0.05400
Br790      Br  0.23785519  0.83709514  0.76297048     0.00200
Br791      Br  0.21552288  0.94012192  0.63332855     0.00700
Br792      Br  0.31800063  0.87911643  0.69289961    -0.03700
Br793      Br  0.26014416  0.77583019  0.66890729     0.00800
Br794      Br  0.24583815  0.89369569  0.73134629    -0.03000
Br795      Br  0.20541801  0.88075128  0.66212943    -0.03900
Br796      Br  0.32895084  0.93685002  0.66162387     0.00100
C797        C  0.21762926  0.66602958  0.79080559     0.01500
C798        C  0.21483080  0.66463446  0.81744216     0.04300
C799        C  0.21197702  0.63922915  0.82919875    -0.11700
C800        C  0.21125949  0.61526438  0.81454842     0.23600
C801        C  0.21133581  0.61671766  0.78805150    -0.12300
C802        C  0.21417043  0.64202104  0.77615053     0.05000
C803        C  0.21263829  0.58851161  0.82708810     0.27400
C804        C  0.23827376  0.57681156  0.83179128    -0.13000
C805        C  0.24004890  0.55187660  0.84438967     0.05500
C806        C  0.21619477  0.53869373  0.85250577    -0.09000
C807        C  0.19053549  0.55028739  0.84773001     0.06400
C808        C  0.18873841  0.57515500  0.83487256    -0.13300
Br809      Br  0.20814748  0.58376219  0.76820451    -0.05400
Br810      Br  0.21524637  0.69688556  0.83846870     0.00200
Br811      Br  0.27520126  0.53590688  0.85088318     0.00700
Br812      Br  0.15372152  0.59101766  0.82786933    -0.03700
Br813      Br  0.21136447  0.64355489  0.73976162     0.00800
Br814      Br  0.21002630  0.63685981  0.86557516    -0.03000
Br815      Br  0.27096770  0.59522727  0.82114242    -0.03900
Br816      Br  0.15800817  0.53193080  0.85873037     0.00100
C817        C  0.04064362  0.71948697  0.64644905     0.01500
C818        C  0.05197480  0.69348510  0.65014794     0.04300
C819        C  0.07740748  0.69088859  0.66203158    -0.11700
C820        C  0.09119232  0.71428257  0.67062948     0.23600
C821        C  0.07985977  0.74025646  0.66681817    -0.12300
C822        C  0.05486324  0.74286302  0.65438464     0.05000
C823        C  0.11762705  0.71210598  0.68375506     0.27400
C824        C  0.11827884  0.70710598  0.70987935    -0.13000
C825        C  0.14280579  0.70986688  0.72320792     0.05500
C826        C  0.16647470  0.71898525  0.71065248    -0.09000
C827        C  0.16610957  0.72225983  0.68414712     0.06400
C828        C  0.14179925  0.71828553  0.67070839    -0.13300
Br829      Br  0.09864542  0.77234578  0.67875921    -0.05400
Br830      Br  0.03250028  0.66155387  0.63907044     0.00200
Br831      Br  0.14399941  0.70022024  0.75849894     0.00700
Br832      Br  0.14104699  0.72257988  0.63448682    -0.03700
Br833      Br  0.04067045  0.77856213  0.64730795     0.00800
Br834      Br  0.09355474  0.65549111  0.66638133    -0.03000
Br835      Br  0.08522186  0.69780102  0.72756121    -0.03900
Br836      Br  0.19799113  0.73433527  0.66617653     0.00100
C837        C  0.94165414  0.74138737  0.65074407     0.01500
C838        C  0.92031849  0.72250689  0.65350918     0.04300
C839        C  0.89751182  0.72910335  0.66849913    -0.11700
C840        C  0.89606015  0.75444191  0.68108353     0.23600
C841        C  0.91746708  0.77321448  0.67862382    -0.12300
C842        C  0.94008742  0.76683061  0.66327299     0.05000
C843        C  0.87140509  0.76143831  0.69606670     0.27400
C844        C  0.84926124  0.77418201  0.68420969    -0.13000
C845        C  0.82438497  0.77720624  0.69714252     0.05500
C846        C  0.82147918  0.76727892  0.72193546    -0.09000
C847        C  0.84426576  0.75626165  0.73441924     0.06400
C848        C  0.86921297  0.75342254  0.72148050    -0.13300
Br849      Br  0.91562709  0.80762213  0.69633385    -0.05400
Br850      Br  0.92262700  0.68728086  0.63733067     0.00200
Br851      Br  0.79456261  0.79569203  0.68109478     0.00700
Br852      Br  0.90026220  0.73777833  0.73816096    -0.03700
Br853      Br  0.96839792  0.79340914  0.65870250     0.00800
Br854      Br  0.86805685  0.70346370  0.67188756    -0.03000
Br855      Br  0.85297191  0.78682692  0.64995545    -0.03900
Br856      Br  0.84100042  0.74337200  0.76864804     0.00100
C857        C  0.94023742  0.72471746  0.35037701     0.01500
C858        C  0.92105117  0.70337511  0.35036241     0.04300
C859        C  0.89545160  0.70693108  0.33888520    -0.11700
C860        C  0.88901122  0.73166641  0.32701422     0.23600
C861        C  0.90817786  0.75294180  0.32691474    -0.12300
C862        C  0.93355303  0.74961213  0.33878487     0.05000
C863        C  0.86202779  0.73546621  0.31477448     0.27400
C864        C  0.85787516  0.72658600  0.28970663    -0.13000
C865        C  0.83254567  0.73070127  0.27791487     0.05500
C866        C  0.81123390  0.74412994  0.29101074    -0.09000
C867        C  0.81551423  0.75304483  0.31611879     0.06400
C868        C  0.84072119  0.74852987  0.32800520    -0.13300
Br869      Br  0.89938063  0.78683444  0.31071291    -0.05400
Br870      Br  0.92996328  0.66911401  0.36578044     0.00200
Br871      Br  0.82689308  0.71701653  0.24403411     0.00700
Br872      Br  0.84638062  0.76059069  0.36238666    -0.03700
Br873      Br  0.95849011  0.77982587  0.34035023     0.00800
Br874      Br  0.86887924  0.67813521  0.33969032    -0.03000
Br875      Br  0.88718638  0.70906379  0.27148062    -0.03900
Br876      Br  0.78764618  0.77309445  0.33382803     0.00100
C877        C  0.98790005  0.72584490  0.56691761     0.01500
C878        C  0.97631188  0.70385866  0.55355902     0.04300
C879        C  0.97694213  0.70335855  0.52694341    -0.11700
C880        C  0.99017317  0.72431210  0.51359232     0.23600
C881        C  0.00243120  0.74591019  0.52706241    -0.12300
C882        C  0.00072923  0.74698784  0.55359282     0.05000
C883        C  0.99089782  0.72386084  0.48544221     0.27400
C884        C  0.00782922  0.70529551  0.47239030    -0.13000
C885        C  0.00713239  0.70371718  0.44580497     0.05500
C886        C  0.99167082  0.72271418  0.43188287    -0.09000
C887        C  0.97614058  0.74253972  0.44512490     0.06400
C888        C  0.97466437  0.74211773  0.47169136    -0.13300
Br889      Br  0.02217292  0.77371201  0.50918500    -0.05400
Br890      Br  0.96061831  0.67389550  0.57179581     0.00200
Br891      Br  0.02604437  0.67422375  0.42896905     0.00700
Br892      Br  0.95003289  0.76638309  0.48934225    -0.03700
Br893      Br  0.01562046  0.77770773  0.57177871     0.00800
Br894      Br  0.95963020  0.67396569  0.50876148    -0.03000
Br895      Br  0.03243631  0.68237889  0.49102309    -0.03900
Br896      Br  0.95824356  0.77165157  0.42733152     0.00100
C897        C  0.30272600  0.75616807  0.79393245     0.01500
C898        C  0.30894211  0.74462933  0.81748139     0.04300
C899        C  0.33439659  0.74953687  0.82872952    -0.11700
C900        C  0.35397415  0.76543563  0.81613334     0.23600
C901        C  0.34750356  0.77756024  0.79290146    -0.12300
C902        C  0.32182871  0.77319066  0.78197837     0.05000
C903        C  0.38192690  0.76782588  0.82644762     0.27400
C904        C  0.38993648  0.79138506  0.83977292    -0.13000
C905        C  0.41647645  0.79339852  0.84951035     0.05500
C906        C  0.43476307  0.77136507  0.84692297    -0.09000
C907        C  0.42671732  0.74784956  0.83339258     0.06400
C908        C  0.40055941  0.74633691  0.82279293    -0.13300
Br909      Br  0.37432390  0.79913693  0.77551510    -0.05400
Br910      Br  0.28354095  0.72045354  0.83339932     0.00200
Br911      Br  0.42806972  0.82673184  0.86566812     0.00700
Br912      Br  0.39001862  0.71470183  0.80329924    -0.03700
Br913      Br  0.31285604  0.79045848  0.75046715     0.00800
Br914      Br  0.34297427  0.73369363  0.86097732    -0.03000
Br915      Br  0.36430414  0.82064604  0.84501700    -0.03900
Br916      Br  0.45082585  0.71699692  0.83035552     0.00100
C917        C  0.66932886  0.76739434  0.78838025     0.01500
C918        C  0.66502093  0.76387176  0.81459276     0.04300
C919        C  0.63854196  0.76493786  0.82472898    -0.11700
C920        C  0.61616506  0.76961105  0.80887011     0.23600
C921        C  0.62027154  0.77378642  0.78288720    -0.12300
C922        C  0.64673217  0.77280244  0.77262254     0.05000
C923        C  0.58831619  0.77034697  0.81971877     0.27400
C924        C  0.57315994  0.74616304  0.82174453    -0.13000
C925        C  0.54750740  0.74653676  0.83362958     0.05500
C926        C  0.53682580  0.77116157  0.84323446    -0.09000
C927        C  0.55156310  0.79550864  0.84030627     0.06400
C928        C  0.57741038  0.79505377  0.82884437    -0.13300
Br929      Br  0.58943959  0.78129468  0.76155927    -0.05400
Br930      Br  0.69492295  0.75677677  0.83695338     0.00200
Br931      Br  0.52739685  0.71321181  0.83749600     0.00700
Br932      Br  0.59834412  0.82807321  0.82623678    -0.03700
Br933      Br  0.65174668  0.78082174  0.73722322     0.00800
Br934      Br  0.63266638  0.76006778  0.86051460    -0.03000
Br935      Br  0.58801886  0.71247049  0.80879616    -0.03900
Br936      Br  0.53621143  0.82952325  0.85183401     0.00100
C937        C  0.54147457  0.77772930  0.14602218     0.01500
C938        C  0.55138996  0.75294470  0.15563054     0.04300
C939        C  0.57543919  0.75245146  0.16999885    -0.11700
C940        C  0.58989469  0.77669297  0.17469139     0.23600
C941        C  0.57998248  0.80149490  0.16514827    -0.12300
C942        C  0.55588249  0.80200210  0.15079145     0.05000
C943        C  0.61611953  0.77584291  0.18871849     0.27400
C944        C  0.61633358  0.77563935  0.21528866    -0.13000
C945        C  0.64114751  0.77360298  0.22849061     0.05500
C946        C  0.66623904  0.77176659  0.21512342    -0.09000
C947        C  0.66580857  0.77392896  0.18833550     0.06400
C948        C  0.64085915  0.77516684  0.17532398    -0.13300
Br949      Br  0.59958576  0.83472480  0.17177750    -0.05400
Br950      Br  0.53269705  0.71939881  0.14815276     0.00200
Br951      Br  0.64016586  0.77551514  0.26498535     0.00700
Br952      Br  0.64027653  0.77520650  0.13879778    -0.03700
Br953      Br  0.54245985  0.83595768  0.13775819     0.00800
Br954      Br  0.58894280  0.71847385  0.18298472    -0.03000
Br955      Br  0.58229259  0.77818486  0.23348349    -0.03900
Br956      Br  0.69878787  0.77559866  0.16852768     0.00100
C957        C  0.48918657  0.77455351  0.92674133     0.01500
C958        C  0.50338861  0.79599228  0.93881663     0.04300
C959        C  0.50564638  0.79674950  0.96531148    -0.11700
C960        C  0.49206740  0.77730016  0.98008992     0.23600
C961        C  0.47690413  0.75655554  0.96818373    -0.12300
C962        C  0.47620709  0.75462061  0.94162476     0.05000
C963        C  0.49370554  0.77861715  0.00815045     0.27400
C964        C  0.51034572  0.76015988  0.02124149    -0.13000
C965        C  0.51037539  0.76001707  0.04785964     0.05500
C966        C  0.49503750  0.77954546  0.06161193    -0.09000
C967        C  0.47980832  0.79917325  0.04832233     0.06400
C968        C  0.47838670  0.79808622  0.02176713    -0.13300
Br969      Br  0.45682835  0.73092763  0.98840446    -0.05400
Br970      Br  0.51847637  0.82542516  0.91942781     0.00200
Br971      Br  0.53015760  0.73183240  0.06515550     0.00700
Br972      Br  0.45482817  0.82281171  0.00397844    -0.03700
Br973      Br  0.45857847  0.72378526  0.92589005     0.00800
Br974      Br  0.52768301  0.82427629  0.98146306    -0.03000
Br975      Br  0.53302260  0.73495186  0.00251847    -0.03900
Br976      Br  0.46177424  0.82841024  0.06626297     0.00100
C977        C  0.27863123  0.93684950  0.35445002     0.01500
C978        C  0.30114594  0.92363408  0.34330138     0.04300
C979        C  0.29747374  0.89911928  0.32979714    -0.11700
C980        C  0.27118198  0.88805889  0.32704284     0.23600
C981        C  0.24861193  0.90159012  0.33782687    -0.12300
C982        C  0.25233726  0.92592406  0.35150648     0.05000
C983        C  0.26716196  0.86206255  0.31305065     0.27400
C984        C  0.26584098  0.86181591  0.28650371    -0.13000
C985        C  0.26165153  0.83718887  0.27326449     0.05500
C986        C  0.25761750  0.81260863  0.28663547    -0.09000
C987        C  0.25896249  0.81314786  0.31343021     0.06400
C988        C  0.26407189  0.83769432  0.32643902    -0.13300
Br989      Br  0.21255548  0.88676934  0.33368351    -0.05400
Br990      Br  0.33684566  0.93950545  0.34619848     0.00200
Br991      Br  0.26330850  0.83754291  0.23677460     0.00700
Br992      Br  0.26665894  0.83822290  0.36287898    -0.03700
Br993      Br  0.22131377  0.94470785  0.36573082     0.00800
Br994      Br  0.32838307  0.88052942  0.31517153    -0.03000
Br995      Br  0.26955572  0.89554157  0.26838033    -0.03900
Br996      Br  0.25266452  0.78091832  0.33312700     0.00100
C997        C  0.23833330  0.53859295  0.14744881     0.01500
C998        C  0.21425385  0.54528540  0.16072902     0.04300
C999        C  0.21161971  0.57080380  0.17269600    -0.11700
C1000       C  0.23308071  0.58971294  0.17157469     0.23600
C1001       C  0.25702935  0.58319542  0.15806657    -0.12300
C1002       C  0.25959049  0.55774987  0.14588540     0.05000
C1003       C  0.23072524  0.61626446  0.18500352     0.27400
C1004       C  0.22455970  0.64004608  0.17157508    -0.13000
C1005       C  0.22473896  0.66558506  0.18392550     0.05500
C1006       C  0.23025851  0.66730646  0.21024829    -0.09000
C1007       C  0.23312249  0.64277355  0.22401817     0.06400
C1008       C  0.23463418  0.61762815  0.21126201    -0.13300
Br1009     Br  0.28639122  0.60915774  0.15648159    -0.05400
Br1010     Br  0.18431283  0.51993778  0.16165607     0.00200
Br1011     Br  0.21764470  0.69747346  0.16391649     0.00700
Br1012     Br  0.24281862  0.58488006  0.22971157    -0.03700
Br1013     Br  0.29238656  0.54900827  0.12737629     0.00800
Br1014     Br  0.17846295  0.58010888  0.19041926    -0.03000
Br1015     Br  0.21615912  0.63732636  0.13601006    -0.03900
Br1016     Br  0.23273770  0.64253344  0.26060429     0.00100
C1017       C  0.44015159  0.76891505  0.14076808     0.01500
C1018       C  0.42212244  0.79106652  0.14373108     0.04300
C1019       C  0.39681648  0.78744223  0.15579195    -0.11700
C1020       C  0.38946490  0.76170683  0.16510535     0.23600
C1021       C  0.40729879  0.73947241  0.16184560    -0.12300
C1022       C  0.43257249  0.74306367  0.14970331     0.05000
C1023       C  0.36350208  0.75836009  0.17928492     0.27400
C1024       C  0.36291085  0.76280494  0.20558328    -0.13000
C1025       C  0.33831588  0.76044068  0.21911928     0.05500
C1026       C  0.31414757  0.75260677  0.20655432    -0.09000
C1027       C  0.31489210  0.74808747  0.18008364     0.06400
C1028       C  0.33944245  0.75120984  0.16653234    -0.13300
Br1029     Br  0.39703763  0.70415354  0.17421225    -0.05400
Br1030     Br  0.43247687  0.82661255  0.13203935     0.00200
Br1031     Br  0.33778623  0.76971405  0.25466330     0.00700
Br1032     Br  0.34042297  0.74543463  0.13041968    -0.03700
Br1033     Br  0.45672286  0.71249933  0.14507047     0.00800
Br1034     Br  0.37218879  0.81775110  0.15989989    -0.03000
Br1035     Br  0.39611100  0.77204017  0.22301189    -0.03900
Br1036     Br  0.28286570  0.73625103  0.16219139     0.00100
C1037       C  0.04251157  0.72154217  0.34955978     0.01500
C1038       C  0.05642859  0.69677049  0.34548623     0.04300
C1039       C  0.08203584  0.69655344  0.33339838    -0.11700
C1040       C  0.09370696  0.72107994  0.32506370     0.23600
C1041       C  0.07964483  0.74579819  0.32889734    -0.12300
C1042       C  0.05422653  0.74604864  0.34127606     0.05000
C1043       C  0.12071875  0.72105882  0.31219228     0.27400
C1044       C  0.14476178  0.72334307  0.32640381    -0.13000
C1045       C  0.17023239  0.72536634  0.31415671     0.05500
C1046       C  0.17177551  0.72576791  0.28738408    -0.09000
C1047       C  0.14761369  0.72140469  0.27331455     0.06400
C1048       C  0.12227348  0.71937592  0.28569382    -0.13300
Br1049     Br  0.09543589  0.77934445  0.31726478    -0.05400
Br1050     Br  0.04029339  0.66314077  0.35645975     0.00200
Br1051     Br  0.20244917  0.72790099  0.33466862     0.00700
Br1052     Br  0.08934744  0.71452982  0.26641465    -0.03700
Br1053     Br  0.03568903  0.78003463  0.34745568     0.00800
Br1054     Br  0.10133660  0.66276104  0.32835156    -0.03000
Br1055     Br  0.14246275  0.72434162  0.36283039    -0.03900
Br1056     Br  0.14891020  0.71614196  0.23707802     0.00100
loop_ 
_geom_bond_atom_site_label_1 
_geom_bond_atom_site_label_2 
_geom_bond_distance 
_geom_bond_site_symmetry_2 
_ccdc_geom_bond_type 
O1           Cu9   2.024       .  S
O1           C11   1.278       .  A
O2           Cu9   2.017       .  S
O2           C12   1.279       .  A
O3           Cu9   2.025       .  S
O3           C13   1.279       .  A
O4           Cu9   2.008       .  S
O4           C14   1.277       .  A
O5          Cu10   2.032       .  S
O5           C14   1.280       .  A
O6          Cu10   2.011       .  S
O6           C13   1.278       .  A
O7          Cu10   2.009       .  S
O7           C12   1.277       .  A
O8          Cu10   1.991       .  S
O8           C11   1.275       .  A
Cu9         Cu10   2.361       .  S
C11        C1006   1.497       .  S
C12         C986   1.494       .  S
C13        C1026   1.491       .  S
C14        C1046   1.498       .  S
C15         C937   1.486       .  S
C15          C16   1.405       .  A
C15          C20   1.405       .  A
C16          C17   1.404       .  A
C16          H21   1.083       .  S
C17        C1017   1.484       .  S
C17          C18   1.403       .  A
C18          C19   1.406       .  A
C18          H22   1.084       .  S
C19         C966   1.491       .  S
C19          C20   1.407       .  A
C20          H23   1.084       .  S
C24         C906   1.485       .  S
C24          C25   1.405       .  A
C24          C29   1.405       .  A
C25          C26   1.404       .  A
C25          H30   1.085       .  S
C26         C957   1.489       .  S
C26          C27   1.404       .  A
C27          C28   1.403       .  A
C27          H31   1.083       .  S
C28         C926   1.479       .  S
C28          C29   1.403       .  A
C29          H32   1.083       .  S
C33        C1037   1.484       .  S
C33          C34   1.405   1_455  A
C33          C38   1.403       .  A
C34          C35   1.407       .  A
C34          H39   1.083       .  S
C35         C857   1.489       .  S
C35          C36   1.404       .  A
C36          C37   1.407       .  A
C36          H40   1.084       .  S
C37         C886   1.494       .  S
C37          C38   1.406   1_655  A
C38          H41   1.083       .  S
C42         C837   1.484       .  S
C42          C43   1.407       .  A
C42          C47   1.403       .  A
C43          C44   1.407       .  A
C43          H48   1.083       .  S
C44         C877   1.481       .  S
C44          C45   1.401   1_655  A
C45          C46   1.399       .  A
C45          H49   1.085       .  S
C46         C817   1.475       .  S
C46          C47   1.401   1_455  A
C47          H50   1.084       .  S
O51         Cu59   2.016       .  S
O51          C61   1.278       .  A
O52         Cu59   2.010       .  S
O52          C62   1.279       .  A
O53         Cu59   2.006       .  S
O53          C63   1.276       .  A
O54         Cu59   1.995       .  S
O54          C64   1.275       .  A
O55         Cu60   2.030       .  S
O55          C64   1.280       .  A
O56         Cu60   2.004       .  S
O56          C63   1.278       .  A
O57         Cu60   2.005       .  S
O57          C62   1.276       .  A
O58         Cu60   2.006       .  S
O58          C61   1.276       .  A
Cu59        Cu60   2.366       .  S
C61         C777   1.501       .  S
C62         C797   1.488       .  S
C63         C826   1.480       .  S
C64         C897   1.476       .  S
C65         C717   1.494       .  S
C65          C66   1.408       .  A
C65          C70   1.407       .  A
C66          C67   1.404       .  A
C66          H71   1.083       .  S
C67         C757   1.484       .  S
C67          C68   1.401       .  A
C68          C69   1.397       .  A
C68          H72   1.085       .  S
C69         C746   1.475       .  S
C69          C70   1.401       .  A
C70          H73   1.083       .  S
C74         C697   1.478       .  S
C74          C75   1.401       .  A
C74          C79   1.404       .  A
C75          C76   1.403       .  A
C75          H80   1.083       .  S
C76         C766   1.486       .  S
C76          C77   1.404       .  A
C77          C78   1.401       .  A
C77          H81   1.085       .  S
C78         C686   1.481       .  S
C78          C79   1.405       .  A
C79          H82   1.083       .  S
C83         C637   1.481       .  S
C83          C84   1.402       .  A
C83          C88   1.403       .  A
C84          C85   1.403       .  A
C84          H89   1.085       .  S
C85         C657   1.485       .  S
C85          C86   1.404       .  A
C86          C87   1.402       .  A
C86          H90   1.083       .  S
C87         C997   1.481       .  S
C87          C88   1.404       .  A
C88          H91   1.084       .  S
C92         C806   1.473       .  S
C92          C93   1.402       .  A
C92          C97   1.400       .  A
C93          C94   1.405       .  A
C93          H98   1.085       .  S
C94         C666   1.483       .  S
C94          C95   1.402       .  A
C95          C96   1.400       .  A
C95          H99   1.083       .  S
C96         C626   1.470       .  S
C96          C97   1.398       .  A
C97         H100   1.084       .  S
C101        C577   1.479       .  S
C101        C102   1.404       .  A
C101        C106   1.403   1_655  A
C102        C103   1.406   1_655  A
C102        H107   1.084       .  S
C103        C597   1.486       .  S
C103        C104   1.403       .  A
C104        C105   1.400       .  A
C104        H108   1.084       .  S
C105        C566   1.479       .  S
C105        C106   1.403       .  A
C106        H109   1.084       .  S
C110        C526   1.480       .  S
C110        C111   1.404       .  A
C110        C115   1.402       .  A
C111        C112   1.406       .  A
C111        H116   1.084       .  S
C112        C606   1.487       .  S
C112        C113   1.405   1_455  A
C113        C114   1.402       .  A
C113        H117   1.084       .  S
C114        C537   1.481       .  S
C114        C115   1.403   1_655  A
C115        H118   1.084       .  S
C119        C977   1.478       .  S
C119        C120   1.404       .  A
C119        C124   1.399       .  A
C120        C121   1.408       .  A
C120        H125   1.083       .  S
C121        C506   1.492       .  S
C121        C122   1.406   1_565  A
C122        C123   1.403       .  A
C122        H126   1.085       .  S
C123        C486   1.479       .  S
C123        C124   1.400   1_545  A
C124        H127   1.084       .  S
C128        C457   1.472       .  S
C128        C129   1.401       .  A
C128        C133   1.399   1_545  A
C129        C130   1.404   1_545  A
C129        H134   1.083       .  S
C130        C497   1.486       .  S
C130        C131   1.407       .  A
C131        C132   1.404       .  A
C131        H135   1.085       .  S
C132        C786   1.478       .  S
C132        C133   1.400       .  A
C133        H136   1.084       .  S
O137       Cu145   2.010       .  S
O137        C147   1.277       .  A
O138       Cu145   2.000       .  S
O138        C148   1.276       .  A
O139       Cu145   2.036       .  S
O139        C149   1.281       .  A
O140       Cu145   2.018       .  S
O140        C150   1.279       .  A
O141       Cu146   2.020       .  S
O141        C150   1.278       .  A
O142       Cu146   1.998       .  S
O142        C149   1.276       .  A
O143       Cu146   2.007       .  S
O143        C148   1.277       .  A
O144       Cu146   1.999       .  S
O144        C147   1.277       .  A
Cu145      Cu146   2.364       .  S
C147        C617   1.488       .  S
C148        C466   1.490       .  S
C149        C677   1.486       .  S
C150        C517   1.498       .  S
O151       Cu159   2.013       .  S
O151        C161   1.278       .  A
O152       Cu159   2.005       .  S
O152        C162   1.275       .  A
O153       Cu159   1.998       .  S
O153        C163   1.276       .  A
O154       Cu159   2.002       .  S
O154        C164   1.276       .  A
O155       Cu160   2.006       .  S
O155        C164   1.277       .  A
O156       Cu160   2.014       .  S
O156        C163   1.278       .  A
O157       Cu160   2.019       .  S
O157        C162   1.277       .  A
O158       Cu160   2.009       .  S
O158        C161   1.278       .  A
Cu159      Cu160   2.362       .  S
C161        C646   1.484       .  S
C162        C477   1.513       .  S
C163        C726   1.488       .  S
C164        C557   1.473       .  S
O165       Cu173   2.022       .  S
O165        C175   1.280       .  A
O166       Cu173   2.025       .  S
O166        C176   1.279       .  A
O167       Cu173   1.998       .  S
O167        C177   1.275       .  A
O168       Cu173   2.015       .  S
O168        C178   1.278       .  A
O169       Cu174   2.010       .  S
O169        C178   1.278       .  A
O170       Cu174   2.028       .  S
O170        C177   1.280       .  A
O171       Cu174   2.001       .  S
O171        C176   1.276       .  A
O172       Cu174   2.005       .  S
O172        C175   1.275       .  A
Cu173      Cu174   2.363       .  S
C175        C437   1.500       .  S
C176        C417   1.500       .  S
C177        C586   1.482       .  S
C178        C737   1.485       .  S
C179        C386   1.477       .  S
C179        C180   1.399       .  A
C179        C184   1.403       .  A
C180        C181   1.400       .  A
C180        H185   1.084       .  S
C181        C426   1.478       .  S
C181        C182   1.403       .  A
C182        C183   1.407       .  A
C182        H186   1.081       .  S
C183        C406   1.491       .  S
C183        C184   1.407       .  A
C184        H187   1.086       .  S
C188        C346   1.479       .  S
C188        C189   1.402       .  A
C188        C193   1.403       .  A
C189        C190   1.404       .  A
C189        H194   1.083       .  S
C190        C397   1.487       .  S
C190        C191   1.405       .  A
C191        C192   1.403       .  A
C191        H195   1.085       .  S
C192        C357   1.482       .  S
C192        C193   1.404       .  A
C193        H196   1.084       .  S
C197        C446   1.478       .  S
C197        C198   1.404       .  A
C197        C202   1.401       .  A
C198        C199   1.408       .  A
C198        H203   1.085       .  S
C199        C317   1.488       .  S
C199        C200   1.403   1_545  A
C200        C201   1.399       .  A
C200        H204   1.083       .  S
C201        C306   1.473       .  S
C201        C202   1.399   1_565  A
C202        H205   1.084       .  S
C206        C277   1.476       .  S
C206        C207   1.404       .  A
C206        C211   1.399   1_565  A
C207        C208   1.406   1_565  A
C207        H212   1.085       .  S
C208        C326   1.485       .  S
C208        C209   1.404       .  A
C209        C210   1.401       .  A
C209        H213   1.083       .  S
C210        C257   1.475       .  S
C210        C211   1.399       .  A
C211        H214   1.084       .  S
O215       Cu223   2.006       .  S
O215        C225   1.276       .  A
O216       Cu223   2.000       .  S
O216        C226   1.277       .  A
O217       Cu223   2.015       .  S
O217        C227   1.278       .  A
O218       Cu223   2.000       .  S
O218        C228   1.276       .  A
O219       Cu224   2.024       .  S
O219        C228   1.279       .  A
O220       Cu224   2.007       .  S
O220        C227   1.277       .  A
O221       Cu224   2.026       .  S
O221        C226   1.279       .  A
O222       Cu224   2.014       .  S
O222        C225   1.278       .  A
Cu223      Cu224   2.364       .  S
C225        C266   1.500       .  S
C226        C337   1.492       .  S
C227        C546   1.489       .  S
C228        C706   1.482       .  S
O229       Cu237   2.013       .  S
O229        C239   1.277       .  A
O230       Cu237   2.007       .  S
O230        C240   1.277       .  A
O231       Cu237   2.033       .  S
O231        C241   1.281       .  A
O232       Cu237   2.020       .  S
O232        C242   1.279       .  A
O233       Cu238   2.022       .  S
O233        C242   1.278       .  A
O234       Cu238   2.008       .  S
O234        C241   1.277       .  A
O235       Cu238   2.017       .  S
O235        C240   1.279       .  A
O236       Cu238   2.004       .  S
O236        C239   1.277       .  A
Cu237      Cu238   2.362       .  S
C239        C297   1.493       .  S
C240        C377   1.488       .  S
C241        C866   1.487       .  S
C242        C946   1.503       .  S
O243       Cu251   2.018       .  S
O243        C253   1.278       .  A
O244       Cu251   2.007       .  S
O244        C254   1.277       .  A
O245       Cu251   2.022       .  S
O245        C255   1.279       .  A
O246       Cu251   2.007       .  S
O246        C256   1.276       .  A
O247       Cu252   2.016       .  S
O247        C256   1.279       .  A
O248       Cu252   2.003       .  S
O248        C255   1.277       .  A
O249       Cu252   2.013       .  S
O249        C254   1.277       .  A
O250       Cu252   2.015       .  S
O250        C253   1.279       .  A
Cu251      Cu252   2.363       .  S
C253        C366   1.498       .  S
C254        C286   1.500       .  S
C255        C917   1.488       .  S
C256        C846   1.479       .  S
C257        C258   1.408       .  A
C257        C262   1.409       .  A
C258        C259   1.406       .  A
C258       Br270   1.930       .  S
C259        C260   1.409       .  A
C259       Br274   1.929       .  S
C260        C263   1.483       .  S
C260        C261   1.409       .  A
C261        C262   1.406       .  A
C261       Br269   1.929       .  S
C262       Br273   1.930       .  S
C263        C264   1.404       .  A
C263        C268   1.403       .  A
C264        C265   1.408       .  A
C264       Br275   1.933       .  S
C265        C266   1.424       .  A
C265       Br271   1.935       .  S
C266        C267   1.426       .  A
C267        C268   1.409       .  A
C267       Br276   1.934       .  S
C268       Br272   1.934       .  S
C277        C278   1.409       .  A
C277        C282   1.408       .  A
C278        C279   1.405       .  A
C278       Br290   1.930       .  S
C279        C280   1.409       .  A
C279       Br294   1.930       .  S
C280        C283   1.483       .  S
C280        C281   1.409       .  A
C281        C282   1.408       .  A
C281       Br289   1.928       .  S
C282       Br293   1.928       .  S
C283        C284   1.404       .  A
C283        C288   1.404       .  A
C284        C285   1.409       .  A
C284       Br295   1.934       .  S
C285        C286   1.425       .  A
C285       Br291   1.934       .  S
C286        C287   1.424       .  A
C287        C288   1.408       .  A
C287       Br296   1.935       .  S
C288       Br292   1.932       .  S
C297        C298   1.422       .  A
C297        C302   1.420       .  A
C298        C299   1.409       .  A
C298       Br310   1.932       .  S
C299        C300   1.405       .  A
C299       Br314   1.933       .  S
C300        C303   1.481       .  S
C300        C301   1.404       .  A
C301        C302   1.406       .  A
C301       Br309   1.932       .  S
C302       Br313   1.935       .  S
C303        C304   1.409       .  A
C303        C308   1.409       .  A
C304        C305   1.405       .  A
C304       Br315   1.930       .  S
C305        C306   1.408       .  A
C305       Br311   1.930       .  S
C306        C307   1.408       .  A
C307        C308   1.406       .  A
C307       Br316   1.929       .  S
C308       Br312   1.928       .  S
C317        C318   1.416   1_545  A
C317        C322   1.414       .  A
C318        C319   1.408       .  A
C318       Br330   1.932       .  S
C319        C320   1.408   1_565  A
C319       Br334   1.931       .  S
C320        C323   1.486       .  S
C320        C321   1.409       .  A
C321        C322   1.407       .  A
C321       Br329   1.931       .  S
C322       Br333   1.932       .  S
C323        C324   1.409       .  A
C323        C328   1.410   1_545  A
C324        C325   1.407       .  A
C324       Br335   1.931       .  S
C325        C326   1.413       .  A
C325       Br331   1.931       .  S
C326        C327   1.413   1_545  A
C327        C328   1.408       .  A
C327       Br336   1.931       .  S
C328       Br332   1.931       .  S
C337        C338   1.419       .  A
C337        C342   1.418       .  A
C338        C339   1.408       .  A
C338       Br350   1.934       .  S
C339        C340   1.405       .  A
C339       Br354   1.930       .  S
C340        C343   1.486       .  S
C340        C341   1.408       .  A
C341        C342   1.410       .  A
C341       Br349   1.931       .  S
C342       Br353   1.928       .  S
C343        C344   1.409       .  A
C343        C348   1.410       .  A
C344        C345   1.408       .  A
C344       Br355   1.928       .  S
C345        C346   1.410       .  A
C345       Br351   1.929       .  S
C346        C347   1.408       .  A
C347        C348   1.407       .  A
C347       Br356   1.929       .  S
C348       Br352   1.930       .  S
C357        C358   1.411       .  A
C357        C362   1.410       .  A
C358        C359   1.407       .  A
C358       Br370   1.930       .  S
C359        C360   1.410       .  A
C359       Br374   1.930       .  S
C360        C363   1.487       .  S
C360        C361   1.410       .  A
C361        C362   1.409       .  A
C361       Br369   1.929       .  S
C362       Br373   1.929       .  S
C363        C364   1.406       .  A
C363        C368   1.406       .  A
C364        C365   1.410       .  A
C364       Br375   1.931       .  S
C365        C366   1.421       .  A
C365       Br371   1.933       .  S
C366        C367   1.421       .  A
C367        C368   1.409       .  A
C367       Br376   1.928       .  S
C368       Br372   1.933       .  S
C377        C378   1.417       .  A
C377        C382   1.416       .  A
C378        C379   1.409       .  A
C378       Br390   1.933       .  S
C379        C380   1.407       .  A
C379       Br394   1.930       .  S
C380        C383   1.485       .  S
C380        C381   1.406       .  A
C381        C382   1.407       .  A
C381       Br389   1.933       .  S
C382       Br393   1.925       .  S
C383        C384   1.409       .  A
C383        C388   1.411       .  A
C384        C385   1.406       .  A
C384       Br395   1.930       .  S
C385        C386   1.409       .  A
C385       Br391   1.929       .  S
C386        C387   1.408       .  A
C387        C388   1.408       .  A
C387       Br396   1.928       .  S
C388       Br392   1.929       .  S
C397        C398   1.413       .  A
C397        C402   1.414       .  A
C398        C399   1.407       .  A
C398       Br410   1.932       .  S
C399        C400   1.409       .  A
C399       Br414   1.931       .  S
C400        C403   1.488   1_556  S
C400        C401   1.410       .  A
C401        C402   1.409       .  A
C401       Br409   1.931       .  S
C402       Br413   1.931       .  S
C403        C404   1.409       .  A
C403        C408   1.409       .  A
C404        C405   1.409       .  A
C404       Br415   1.931       .  S
C405        C406   1.416       .  A
C405       Br411   1.931       .  S
C406        C407   1.416       .  A
C407        C408   1.408       .  A
C407       Br416   1.932       .  S
C408       Br412   1.932       .  S
C417        C418   1.422       .  A
C417        C422   1.424       .  A
C418        C419   1.410       .  A
C418       Br430   1.930       .  S
C419        C420   1.405       .  A
C419       Br434   1.933       .  S
C420        C423   1.486       .  S
C420        C421   1.405       .  A
C421        C422   1.409       .  A
C421       Br429   1.933       .  S
C422       Br433   1.936       .  S
C423        C424   1.410       .  A
C423        C428   1.410       .  A
C424        C425   1.408       .  A
C424       Br435   1.929       .  S
C425        C426   1.409       .  A
C425       Br431   1.929       .  S
C426        C427   1.410       .  A
C427        C428   1.406       .  A
C427       Br436   1.931       .  S
C428       Br432   1.930       .  S
C437        C438   1.425       .  A
C437        C442   1.422       .  A
C438        C439   1.409       .  A
C438       Br450   1.933       .  S
C439        C440   1.404       .  A
C439       Br454   1.934       .  S
C440        C443   1.485       .  S
C440        C441   1.405       .  A
C441        C442   1.410       .  A
C441       Br449   1.932       .  S
C442       Br453   1.934       .  S
C443        C444   1.409       .  A
C443        C448   1.410       .  A
C444        C445   1.406       .  A
C444       Br455   1.929       .  S
C445        C446   1.410       .  A
C445       Br451   1.930       .  S
C446        C447   1.408       .  A
C447        C448   1.409       .  A
C447       Br456   1.928       .  S
C448       Br452   1.929       .  S
C457        C458   1.408       .  A
C457        C462   1.408       .  A
C458        C459   1.403       .  A
C458       Br470   1.930       .  S
C459        C460   1.408       .  A
C459       Br474   1.931       .  S
C460        C463   1.479       .  S
C460        C461   1.409       .  A
C461        C462   1.406       .  A
C461       Br469   1.928       .  S
C462       Br473   1.928       .  S
C463        C464   1.404       .  A
C463        C468   1.404       .  A
C464        C465   1.406       .  A
C464       Br475   1.933       .  S
C465        C466   1.420       .  A
C465       Br471   1.931       .  S
C466        C467   1.422       .  A
C467        C468   1.407       .  A
C467       Br476   1.935       .  S
C468       Br472   1.932       .  S
C477        C478   1.433       .  A
C477        C482   1.432       .  A
C478        C479   1.410       .  A
C478       Br490   1.938       .  S
C479        C480   1.402       .  A
C479       Br494   1.936       .  S
C480        C483   1.486       .  S
C480        C481   1.402       .  A
C481        C482   1.412       .  A
C481       Br489   1.935       .  S
C482       Br493   1.937       .  S
C483        C484   1.409       .  A
C483        C488   1.409       .  A
C484        C485   1.407       .  A
C484       Br495   1.929       .  S
C485        C486   1.411       .  A
C485       Br491   1.930       .  S
C486        C487   1.410       .  A
C487        C488   1.407       .  A
C487       Br496   1.930       .  S
C488       Br492   1.929       .  S
C497        C498   1.412       .  A
C497        C502   1.414   1_565  A
C498        C499   1.407       .  A
C498       Br510   1.931       .  S
C499        C500   1.409       .  A
C499       Br514   1.930       .  S
C500        C503   1.488       .  S
C500        C501   1.410   1_565  A
C501        C502   1.409       .  A
C501       Br509   1.931       .  S
C502       Br513   1.932       .  S
C503        C504   1.409   1_565  A
C503        C508   1.408       .  A
C504        C505   1.409       .  A
C504       Br515   1.930       .  S
C505        C506   1.415   1_545  A
C505       Br511   1.931       .  S
C506        C507   1.416       .  A
C507        C508   1.407       .  A
C507       Br516   1.930       .  S
C508       Br512   1.932       .  S
C517        C518   1.420       .  A
C517        C522   1.421       .  A
C518        C519   1.410       .  A
C518       Br530   1.933       .  S
C519        C520   1.406       .  A
C519       Br534   1.932       .  S
C520        C523   1.488       .  S
C520        C521   1.406       .  A
C521        C522   1.411       .  A
C521       Br529   1.932       .  S
C522       Br533   1.929       .  S
C523        C524   1.410       .  A
C523        C528   1.410       .  A
C524        C525   1.408       .  A
C524       Br535   1.929       .  S
C525        C526   1.409       .  A
C525       Br531   1.928       .  S
C526        C527   1.409       .  A
C527        C528   1.409       .  A
C527       Br536   1.929       .  S
C528       Br532   1.928       .  S
C537        C538   1.410       .  A
C537        C542   1.411       .  A
C538        C539   1.409       .  A
C538       Br550   1.928       .  S
C539        C540   1.410       .  A
C539       Br554   1.929       .  S
C540        C543   1.485       .  S
C540        C541   1.408       .  A
C541        C542   1.406       .  A
C541       Br549   1.930       .  S
C542       Br553   1.929       .  S
C543        C544   1.407       .  A
C543        C548   1.406       .  A
C544        C545   1.409       .  A
C544       Br555   1.931       .  S
C545        C546   1.418       .  A
C545       Br551   1.933       .  S
C546        C547   1.417       .  A
C547        C548   1.408       .  A
C547       Br556   1.930       .  S
C548       Br552   1.932       .  S
C557        C558   1.411       .  A
C557        C562   1.411       .  A
C558        C559   1.406       .  A
C558       Br570   1.931       .  S
C559        C560   1.408       .  A
C559       Br574   1.930       .  S
C560        C563   1.481       .  S
C560        C561   1.409       .  A
C561        C562   1.406       .  A
C561       Br569   1.930       .  S
C562       Br573   1.931       .  S
C563        C564   1.409       .  A
C563        C568   1.407       .  A
C564        C565   1.408       .  A
C564       Br575   1.929       .  S
C565        C566   1.411       .  A
C565       Br571   1.929       .  S
C566        C567   1.411       .  A
C567        C568   1.404       .  A
C567       Br576   1.928       .  S
C568       Br572   1.931       .  S
C577        C578   1.409       .  A
C577        C582   1.409       .  A
C578        C579   1.406       .  A
C578       Br590   1.927       .  S
C579        C580   1.410       .  A
C579       Br594   1.930       .  S
C580        C583   1.485       .  S
C580        C581   1.410       .  A
C581        C582   1.408       .  A
C581       Br589   1.929       .  S
C582       Br593   1.928       .  S
C583        C584   1.409       .  A
C583        C588   1.408       .  A
C584        C585   1.409       .  A
C584       Br595   1.930       .  S
C585        C586   1.414       .  A
C585       Br591   1.932       .  S
C586        C587   1.411       .  A
C587        C588   1.406       .  A
C587       Br596   1.923       .  S
C588       Br592   1.932       .  S
C597        C598   1.413   1_455  A
C597        C602   1.414       .  A
C598        C599   1.408       .  A
C598       Br610   1.930       .  S
C599        C600   1.410   1_655  A
C599       Br614   1.931       .  S
C600        C603   1.488       .  S
C600        C601   1.410       .  A
C601        C602   1.407       .  A
C601       Br609   1.931       .  S
C602       Br613   1.933       .  S
C603        C604   1.411       .  A
C603        C608   1.409   1_455  A
C604        C605   1.408       .  A
C604       Br615   1.931       .  S
C605        C606   1.413       .  A
C605       Br611   1.930       .  S
C606        C607   1.414   1_455  A
C607        C608   1.407       .  A
C607       Br616   1.932       .  S
C608       Br612   1.931       .  S
C617        C618   1.420       .  A
C617        C622   1.419       .  A
C618        C619   1.406       .  A
C618       Br630   1.934       .  S
C619        C620   1.404       .  A
C619       Br634   1.932       .  S
C620        C623   1.478       .  S
C620        C621   1.404       .  A
C621        C622   1.406       .  A
C621       Br629   1.933       .  S
C622       Br633   1.928       .  S
C623        C624   1.409       .  A
C623        C628   1.408       .  A
C624        C625   1.405       .  A
C624       Br635   1.929       .  S
C625        C626   1.408       .  A
C625       Br631   1.929       .  S
C626        C627   1.408       .  A
C627        C628   1.404       .  A
C627       Br636   1.930       .  S
C628       Br632   1.930       .  S
C637        C638   1.410       .  A
C637        C642   1.411       .  A
C638        C639   1.408       .  A
C638       Br650   1.930       .  S
C639        C640   1.410       .  A
C639       Br654   1.929       .  S
C640        C643   1.486       .  S
C640        C641   1.409       .  A
C641        C642   1.408       .  A
C641       Br649   1.929       .  S
C642       Br653   1.930       .  S
C643        C644   1.408       .  A
C643        C648   1.408       .  A
C644        C645   1.408       .  A
C644       Br655   1.931       .  S
C645        C646   1.415       .  A
C645       Br651   1.932       .  S
C646        C647   1.414       .  A
C647        C648   1.409       .  A
C647       Br656   1.931       .  S
C648       Br652   1.930       .  S
C657        C658   1.414       .  A
C657        C662   1.413       .  A
C658        C659   1.406       .  A
C658       Br670   1.932       .  S
C659        C660   1.408       .  A
C659       Br674   1.931       .  S
C660        C663   1.484   1_554  S
C660        C661   1.409       .  A
C661        C662   1.407       .  A
C661       Br669   1.931       .  S
C662       Br673   1.931       .  S
C663        C664   1.409       .  A
C663        C668   1.409       .  A
C664        C665   1.407       .  A
C664       Br675   1.930       .  S
C665        C666   1.414       .  A
C665       Br671   1.932       .  S
C666        C667   1.413       .  A
C667        C668   1.405       .  A
C667       Br676   1.932       .  S
C668       Br672   1.931       .  S
C677        C678   1.414       .  A
C677        C682   1.412       .  A
C678        C679   1.408       .  A
C678       Br690   1.932       .  S
C679        C680   1.407       .  A
C679       Br694   1.930       .  S
C680        C683   1.486       .  S
C680        C681   1.409       .  A
C681        C682   1.409       .  A
C681       Br689   1.931       .  S
C682       Br693   1.921       .  S
C683        C684   1.410       .  A
C683        C688   1.409       .  A
C684        C685   1.410       .  A
C684       Br695   1.928       .  S
C685        C686   1.410       .  A
C685       Br691   1.928       .  S
C686        C687   1.410       .  A
C687        C688   1.406       .  A
C687       Br696   1.929       .  S
C688       Br692   1.931       .  S
C697        C698   1.410       .  A
C697        C702   1.408       .  A
C698        C699   1.407       .  A
C698       Br710   1.929       .  S
C699        C700   1.409       .  A
C699       Br714   1.929       .  S
C700        C703   1.483       .  S
C700        C701   1.409       .  A
C701        C702   1.406       .  A
C701       Br709   1.929       .  S
C702       Br713   1.927       .  S
C703        C704   1.408       .  A
C703        C708   1.407       .  A
C704        C705   1.408       .  A
C704       Br715   1.931       .  S
C705        C706   1.412       .  A
C705       Br711   1.924       .  S
C706        C707   1.415       .  A
C707        C708   1.407       .  A
C707       Br716   1.932       .  S
C708       Br712   1.930       .  S
C717        C718   1.420       .  A
C717        C722   1.418       .  A
C718        C719   1.409       .  A
C718       Br730   1.933       .  S
C719        C720   1.407       .  A
C719       Br734   1.931       .  S
C720        C723   1.485       .  S
C720        C721   1.407       .  A
C721        C722   1.406       .  A
C721       Br729   1.933       .  S
C722       Br733   1.933       .  S
C723        C724   1.408       .  A
C723        C728   1.406       .  A
C724        C725   1.410       .  A
C724       Br735   1.931       .  S
C725        C726   1.418       .  A
C725       Br731   1.932       .  S
C726        C727   1.419       .  A
C727        C728   1.405       .  A
C727       Br736   1.935       .  S
C728       Br732   1.933       .  S
C737        C738   1.415       .  A
C737        C742   1.415       .  A
C738        C739   1.407       .  A
C738       Br750   1.926       .  S
C739        C740   1.406       .  A
C739       Br754   1.932       .  S
C740        C743   1.483       .  S
C740        C741   1.408       .  A
C741        C742   1.408       .  A
C741       Br749   1.930       .  S
C742       Br753   1.932       .  S
C743        C744   1.410       .  A
C743        C748   1.409       .  A
C744        C745   1.407       .  A
C744       Br755   1.929       .  S
C745        C746   1.408       .  A
C745       Br751   1.929       .  S
C746        C747   1.409       .  A
C747        C748   1.406       .  A
C747       Br756   1.930       .  S
C748       Br752   1.929       .  S
C757        C758   1.411       .  A
C757        C762   1.415       .  A
C758        C759   1.406       .  A
C758       Br770   1.930       .  S
C759        C760   1.410       .  A
C759       Br774   1.932   1_554  S
C760        C763   1.483   1_554  S
C760        C761   1.407       .  A
C761        C762   1.406       .  A
C761       Br769   1.931       .  S
C762       Br773   1.932       .  S
C763        C764   1.408       .  A
C763        C768   1.408       .  A
C764        C765   1.405       .  A
C764       Br775   1.932       .  S
C765        C766   1.415       .  A
C765       Br771   1.931       .  S
C766        C767   1.416       .  A
C767        C768   1.406       .  A
C767       Br776   1.933       .  S
C768       Br772   1.930       .  S
C777        C778   1.426       .  A
C777        C782   1.425       .  A
C778        C779   1.409       .  A
C778       Br790   1.936       .  S
C779        C780   1.404       .  A
C779       Br794   1.934       .  S
C780        C783   1.484       .  S
C780        C781   1.404       .  A
C781        C782   1.409       .  A
C781       Br789   1.933       .  S
C782       Br793   1.933       .  S
C783        C784   1.409       .  A
C783        C788   1.409       .  A
C784        C785   1.407       .  A
C784       Br795   1.929       .  S
C785        C786   1.409       .  A
C785       Br791   1.929       .  S
C786        C787   1.410       .  A
C787        C788   1.407       .  A
C787       Br796   1.930       .  S
C788       Br792   1.929       .  S
C797        C798   1.418       .  A
C797        C802   1.418       .  A
C798        C799   1.407       .  A
C798       Br810   1.930       .  S
C799        C800   1.406       .  A
C799       Br814   1.932       .  S
C800        C803   1.480       .  S
C800        C801   1.405       .  A
C801        C802   1.406       .  A
C801       Br809   1.931       .  S
C802       Br813   1.934       .  S
C803        C804   1.409       .  A
C803        C808   1.409       .  A
C804        C805   1.404       .  A
C804       Br815   1.931       .  S
C805        C806   1.408       .  A
C805       Br811   1.931       .  S
C806        C807   1.408       .  A
C807        C808   1.407       .  A
C807       Br816   1.928       .  S
C808       Br812   1.928       .  S
C817        C818   1.409       .  A
C817        C822   1.408       .  A
C818        C819   1.408       .  A
C818       Br830   1.929       .  S
C819        C820   1.409       .  A
C819       Br834   1.928       .  S
C820        C823   1.480       .  S
C820        C821   1.409       .  A
C821        C822   1.402       .  A
C821       Br829   1.932       .  S
C822       Br833   1.928       .  S
C823        C824   1.407       .  A
C823        C828   1.407       .  A
C824        C825   1.406       .  A
C824       Br835   1.930       .  S
C825        C826   1.414       .  A
C825       Br831   1.932       .  S
C826        C827   1.414       .  A
C827        C828   1.406       .  A
C827       Br836   1.928       .  S
C828       Br832   1.931       .  S
C837        C838   1.410       .  A
C837        C842   1.413       .  A
C838        C839   1.407       .  A
C838       Br850   1.929       .  S
C839        C840   1.409       .  A
C839       Br854   1.930       .  S
C840        C843   1.485       .  S
C840        C841   1.407       .  A
C841        C842   1.408       .  A
C841       Br849   1.929       .  S
C842       Br853   1.927       .  S
C843        C844   1.408       .  A
C843        C848   1.409       .  A
C844        C845   1.407       .  A
C844       Br855   1.930       .  S
C845        C846   1.411       .  A
C845       Br851   1.928       .  S
C846        C847   1.412       .  A
C847        C848   1.409       .  A
C847       Br856   1.931       .  S
C848       Br852   1.929       .  S
C857        C858   1.412       .  A
C857        C862   1.413       .  A
C858        C859   1.411       .  A
C858       Br870   1.929       .  S
C859        C860   1.410       .  A
C859       Br874   1.929       .  S
C860        C863   1.491       .  S
C860        C861   1.409       .  A
C861        C862   1.409       .  A
C861       Br869   1.930       .  S
C862       Br873   1.929       .  S
C863        C864   1.409       .  A
C863        C868   1.409       .  A
C864        C865   1.410       .  A
C864       Br875   1.929       .  S
C865        C866   1.414       .  A
C865       Br871   1.931       .  S
C866        C867   1.412       .  A
C867        C868   1.410       .  A
C867       Br876   1.923       .  S
C868       Br872   1.931       .  S
C877        C878   1.409       .  A
C877        C882   1.410   1_655  A
C878        C879   1.409       .  A
C878       Br890   1.929       .  S
C879        C880   1.413       .  A
C879       Br894   1.930       .  S
C880        C883   1.490       .  S
C880        C881   1.411   1_655  A
C881        C882   1.407       .  A
C881       Br889   1.930       .  S
C882       Br893   1.931       .  S
C883        C884   1.409   1_655  A
C883        C888   1.409       .  A
C884        C885   1.409       .  A
C884       Br895   1.931       .  S
C885        C886   1.417   1_455  A
C885       Br891   1.931       .  S
C886        C887   1.417       .  A
C887        C888   1.408       .  A
C887       Br896   1.933       .  S
C888       Br892   1.932       .  S
C897        C898   1.408       .  A
C897        C902   1.411       .  A
C898        C899   1.408       .  A
C898       Br910   1.923       .  S
C899        C900   1.410       .  A
C899       Br914   1.930       .  S
C900        C903   1.485       .  S
C900        C901   1.408       .  A
C901        C902   1.406       .  A
C901       Br909   1.930       .  S
C902       Br913   1.930       .  S
C903        C904   1.409       .  A
C903        C908   1.409       .  A
C904        C905   1.408       .  A
C904       Br915   1.929       .  S
C905        C906   1.412       .  A
C905       Br911   1.930       .  S
C906        C907   1.413       .  A
C907        C908   1.407       .  A
C907       Br916   1.929       .  S
C908       Br912   1.932       .  S
C917        C918   1.415       .  A
C917        C922   1.418       .  A
C918        C919   1.407       .  A
C918       Br930   1.924       .  S
C919        C920   1.406       .  A
C919       Br934   1.932       .  S
C920        C923   1.483       .  S
C920        C921   1.406       .  A
C921        C922   1.409       .  A
C921       Br929   1.931       .  S
C922       Br933   1.933       .  S
C923        C924   1.409       .  A
C923        C928   1.408       .  A
C924        C925   1.407       .  A
C924       Br935   1.929       .  S
C925        C926   1.409       .  A
C925       Br931   1.927       .  S
C926        C927   1.410       .  A
C927        C928   1.406       .  A
C927       Br936   1.927       .  S
C928       Br932   1.929       .  S
C937        C938   1.412       .  A
C937        C942   1.410       .  A
C938        C939   1.409       .  A
C938       Br950   1.928       .  S
C939        C940   1.410       .  A
C939       Br954   1.930       .  S
C940        C943   1.491       .  S
C940        C941   1.411       .  A
C941        C942   1.410       .  A
C941       Br949   1.929       .  S
C942       Br953   1.929       .  S
C943        C944   1.407       .  A
C943        C948   1.406       .  A
C944        C945   1.412       .  A
C944       Br955   1.931       .  S
C945        C946   1.422       .  A
C945       Br951   1.934       .  S
C946        C947   1.423       .  A
C947        C948   1.411       .  A
C947       Br956   1.930       .  S
C948       Br952   1.934       .  S
C957        C958   1.415       .  A
C957        C962   1.414       .  A
C958        C959   1.407       .  A
C958       Br970   1.929       .  S
C959        C960   1.408       .  A
C959       Br974   1.931       .  S
C960        C963   1.489   1_556  S
C960        C961   1.410       .  A
C961        C962   1.409       .  A
C961       Br969   1.931       .  S
C962       Br973   1.932       .  S
C963        C964   1.409       .  A
C963        C968   1.409       .  A
C964        C965   1.409       .  A
C964       Br975   1.931       .  S
C965        C966   1.415       .  A
C965       Br971   1.931       .  S
C966        C967   1.414       .  A
C967        C968   1.408       .  A
C967       Br976   1.929       .  S
C968       Br972   1.931       .  S
C977        C978   1.408       .  A
C977        C982   1.409       .  A
C978        C979   1.408       .  A
C978       Br990   1.928       .  S
C979        C980   1.411       .  A
C979       Br994   1.929       .  S
C980        C983   1.486       .  S
C980        C981   1.409       .  A
C981        C982   1.406       .  A
C981       Br989   1.930       .  S
C982       Br993   1.929       .  S
C983        C984   1.407       .  A
C983        C988   1.406       .  A
C984        C985   1.410       .  A
C984       Br995   1.932       .  S
C985        C986   1.420       .  A
C985       Br991   1.933       .  S
C986        C987   1.420       .  A
C987        C988   1.408       .  A
C987       Br996   1.929       .  S
C988       Br992   1.933       .  S
C997        C998   1.412       .  A
C997       C1002   1.411       .  A
C998        C999   1.406       .  A
C998      Br1010   1.931       .  S
C999       C1000   1.409       .  A
C999      Br1014   1.930       .  S
C1000      C1003   1.485       .  S
C1000      C1001   1.410       .  A
C1001      C1002   1.408       .  A
C1001     Br1009   1.931       .  S
C1002     Br1013   1.930       .  S
C1003      C1004   1.407       .  A
C1003      C1008   1.405       .  A
C1004      C1005   1.411       .  A
C1004     Br1015   1.932       .  S
C1005      C1006   1.422       .  A
C1005     Br1011   1.932       .  S
C1006      C1007   1.422       .  A
C1007      C1008   1.406       .  A
C1007     Br1016   1.937       .  S
C1008     Br1012   1.933       .  S
C1017      C1018   1.411       .  A
C1017      C1022   1.410       .  A
C1018      C1019   1.409       .  A
C1018     Br1030   1.928       .  S
C1019      C1020   1.409       .  A
C1019     Br1034   1.929       .  S
C1020      C1023   1.489       .  S
C1020      C1021   1.410       .  A
C1021      C1022   1.409       .  A
C1021     Br1029   1.929       .  S
C1022     Br1033   1.928       .  S
C1023      C1024   1.407       .  A
C1023      C1028   1.408       .  A
C1024      C1025   1.409       .  A
C1024     Br1035   1.931       .  S
C1025      C1026   1.416       .  A
C1025     Br1031   1.932       .  S
C1026      C1027   1.417       .  A
C1027      C1028   1.411       .  A
C1027     Br1036   1.929       .  S
C1028     Br1032   1.931       .  S
C1037      C1038   1.411       .  A
C1037      C1042   1.409       .  A
C1038      C1039   1.410       .  A
C1038     Br1050   1.928       .  S
C1039      C1040   1.410       .  A
C1039     Br1054   1.928       .  S
C1040      C1043   1.490       .  S
C1040      C1041   1.410       .  A
C1041      C1042   1.409       .  A
C1041     Br1049   1.929       .  S
C1042     Br1053   1.927       .  S
C1043      C1044   1.408       .  A
C1043      C1048   1.406       .  A
C1044      C1045   1.412       .  A
C1044     Br1055   1.931       .  S
C1045      C1046   1.419       .  A
C1045     Br1051   1.927       .  S
C1046      C1047   1.420       .  A
C1047      C1048   1.410       .  A
C1047     Br1056   1.934       .  S
C1048     Br1052   1.931       .  S
