geometry optimzed in LAMMPS
_audit_creation_date              2020-12-01 
_audit_creation_method            'lammps2cif' 
_symmetry_space_group_name_H-M    'P1' 
_symmetry_Int_Tables_number       1 
_symmetry_cell_setting            triclinic 
loop_ 
_symmetry_equiv_pos_as_xyz 
  x,y,z 
_cell_length_a                    42.26387222 
_cell_length_b                    38.73156776695996 
_cell_length_c                    44.67190632824164 
_cell_angle_alpha                 89.29411216899828 
_cell_angle_beta                  90.21286414546402 
_cell_angle_gamma                 89.87737358753394 
loop_ 
_atom_site_label 
_atom_site_type_symbol 
_atom_site_fract_x 
_atom_site_fract_y 
_atom_site_fract_z 
_atom_site_charge 
Zn1        Zn  0.46890299  0.47771164  0.22886421     1.49700
Zn2        Zn  0.02269680  0.02371163  0.21928124     1.49400
Zn3        Zn  0.48190719  0.03164120  0.27514514     1.49100
Zn4        Zn  0.02314431  0.45831705  0.26676007     1.49500
O5          O  0.99605537  0.99969393  0.24822755    -1.81400
O6          O  0.47803017  0.47858011  0.18521869    -0.72000
O7          O  0.03156352  0.07285516  0.22885818    -0.71800
O8          O  0.43327582  0.03478968  0.27190318    -0.71300
O9          O  0.01047822  0.01703614  0.17587138    -0.72000
O10         O  0.42928314  0.50026048  0.23642936    -0.71600
O11         O  0.50723825  0.07705622  0.27111289    -0.72200
O12         O  0.02147106  0.46690230  0.31091497    -0.71600
O13         O  0.06531454  0.00699248  0.22536142    -0.72300
O14         O  0.49095688  0.01480996  0.31707637    -0.71700
O15         O  0.07066767  0.45871741  0.25791733    -0.72200
O16         O  0.99820957  0.41224526  0.26214414    -0.72100
O17         O  0.45680801  0.43062637  0.24062568    -0.71900
C18         C  0.98727025  0.00112816  0.16413650     0.79900
C19         C  0.02644201  0.09021038  0.25227672     0.80400
C20         C  0.41436894  0.01775974  0.25525476     0.79300
C21         C  0.50826818  0.48791934  0.33505686     0.79700
C22         C  0.08672171  0.48169846  0.24391553     0.80900
C23         C  0.46951240  0.40645044  0.25563957     0.79900
Zn24       Zn  0.22387355  0.47809897  0.22211289     1.49700
Zn25       Zn  0.22570045  0.04326268  0.26604837     1.49400
Zn26       Zn  0.27125393  0.46031606  0.27448295     1.49100
Zn27       Zn  0.27832995  0.01937734  0.22002981     1.49500
O28         O  0.25355812  0.49849596  0.25003348    -1.81400
O29         O  0.18273545  0.49833133  0.22895312    -0.72000
O30         O  0.22770578  0.03900682  0.31151484    -0.71800
O31         O  0.24529599  0.41520269  0.26975806    -0.71300
O32         O  0.17829686  0.04223059  0.25537676    -0.72000
O33         O  0.21261111  0.42968804  0.23270639    -0.71600
O34         O  0.26789329  0.47205774  0.31790600    -0.72200
O35         O  0.31971191  0.00327176  0.23409134    -0.71600
O36         O  0.24999346  0.08855470  0.25556691    -0.72300
O37         O  0.31930477  0.45810859  0.26899294    -0.71700
O38         O  0.28642763  0.06927906  0.22417223    -0.72200
O39         O  0.26973542  0.00777947  0.17617798    -0.72100
O40         O  0.23526451  0.48257220  0.17819704    -0.71900
C41         C  0.16295991  0.01929078  0.24098139     0.79900
C42         C  0.25715163  0.49735059  0.33260620     0.80400
C43         C  0.22152370  0.40856938  0.25295857     0.79300
C44         C  0.33675314  0.48044953  0.25581092     0.79700
C45         C  0.27488134  0.09326198  0.23977354     0.80900
C46         C  0.25796497  0.49851188  0.16550239     0.79900
Zn47       Zn  0.10543296  0.29111577  0.22534103     1.49700
Zn48       Zn  0.08893540  0.23097914  0.27357896     1.49400
Zn49       Zn  0.13850152  0.21593675  0.22358093     1.49100
Zn50       Zn  0.15180213  0.26913339  0.27816199     1.49500
O51         O  0.12154747  0.25184964  0.24940583    -1.81400
O52         O  0.05659397  0.29010914  0.22575974    -0.72000
O53         O  0.08316808  0.18065522  0.26875554    -0.71800
O54         O  0.13349105  0.23020206  0.17959654    -0.71300
O55         O  0.04963110  0.24561232  0.25687866    -0.72000
O56         O  0.11604268  0.28423326  0.18200123    -0.71600
O57         O  0.11308880  0.16990211  0.22916922    -0.72200
O58         O  0.19270745  0.24673459  0.27259247    -0.71600
O59         O  0.08934646  0.24313776  0.31674112    -0.72300
O60         O  0.18663385  0.21602908  0.23089880    -0.71700
O61         O  0.13721468  0.26588364  0.32117524    -0.72200
O62         O  0.16431332  0.31759351  0.26852389    -0.72100
O63         O  0.12893194  0.33647949  0.23527470    -0.71900
C64         C  0.03891473  0.26734970  0.23820699     0.79900
C65         C  0.09136919  0.16094806  0.24768734     0.80400
C66         C  0.12563508  0.25868401  0.16693185     0.79300
C67         C  0.20409113  0.23098789  0.25033024     0.79700
C68         C  0.11115057  0.25595513  0.33263770     0.80900
C69         C  0.15394289  0.34105543  0.25099850     0.79900
Zn70       Zn  0.34047782  0.23362944  0.21459752     1.49700
Zn71       Zn  0.40268352  0.27449361  0.21705682     1.49400
Zn72       Zn  0.35542109  0.28373409  0.27041933     1.49100
Zn73       Zn  0.39180151  0.21039028  0.26296561     1.49500
O74         O  0.37259432  0.25037656  0.24199958    -1.81400
O75         O  0.35026350  0.24196760  0.17069429    -0.72000
O76         O  0.41313680  0.32057893  0.23214639    -0.71800
O77         O  0.30692292  0.28085176  0.26770261    -0.71300
O78         O  0.39225876  0.27612176  0.17331593    -0.72000
O79         O  0.29895928  0.25175707  0.22550006    -0.71600
O80         O  0.37740248  0.33192273  0.26693059    -0.72200
O81         O  0.39072933  0.21759017  0.30785703    -0.71600
O82         O  0.44392335  0.25407902  0.22204177    -0.72300
O83         O  0.36630182  0.26806883  0.31241762    -0.71700
O84         O  0.43918583  0.20978252  0.25396945    -0.72200
O85         O  0.36651947  0.16546307  0.25479364    -0.72100
O86         O  0.33077810  0.18426262  0.22182095    -0.71900
C87         C  0.37154243  0.26027985  0.15811140     0.79900
C88         C  0.40223369  0.34012907  0.25210780     0.80400
C89         C  0.28866385  0.26569834  0.24910066     0.79300
C90         C  0.38026939  0.24192703  0.32397768     0.79700
C91         C  0.45597965  0.23099312  0.23874282     0.80900
C92         C  0.34166524  0.16070674  0.23889307     0.79900
Zn93       Zn  0.02778813  0.48334036  0.46690761     1.49700
Zn94       Zn  0.48468772  0.46058122  0.03354720     1.49400
Zn95       Zn  0.02045561  0.03737077  0.01790937     1.49100
Zn96       Zn  0.46821938  0.02638074  0.47123830     1.49500
O97         O  0.49844850  0.99630848  0.99683411    -1.81400
O98         O  0.03492782  0.43443657  0.47689588    -0.72000
O99         O  0.49612855  0.47779480  0.07470744    -0.71800
O100        O  0.06836128  0.03543040  0.01047639    -0.71300
O101        O  0.50722639  0.41292997  0.02918172    -0.72800
O102        O  0.07004448  0.49921274  0.47574847    -0.71600
O103        O  0.01613447  0.03126518  0.06265341    -0.72200
O104        O  0.46041188  0.07529222  0.47738890    -0.71600
O105        O  0.43593350  0.46040460  0.03263717    -0.72300
O106        O  0.99728045  0.08408091  0.00831707    -0.71700
O107        O  0.42802147  0.00986677  0.48488783    -0.72200
O108        O  0.47340532  0.01922680  0.42745923    -0.72100
O109        O  0.01780694  0.48943702  0.42294140    -0.71900
C110        C  0.02896157  0.40844832  0.00155469     0.79900
C111        C  0.50474696  0.00440196  0.07869054     0.80400
C112        C  0.08457389  0.01306411  0.99628450     0.79300
C113        C  0.46824694  0.08623574  0.99603531     0.79700
C114        C  0.41676798  0.47625831  0.01499064     0.80900
C115        C  0.49456922  0.00413928  0.41237603     0.79900
Zn116      Zn  0.23055459  0.45532673  0.01963117     1.49700
Zn117      Zn  0.26874598  0.03809267  0.01959991     1.49400
Zn118      Zn  0.28240600  0.48956195  0.47377035     1.49100
Zn119      Zn  0.22157983  0.02870119  0.47070280     1.49500
O120        O  0.25239529  0.00924658  0.49861055    -1.81400
O121        O  0.23285116  0.46131597  0.06478471    -0.72000
O122        O  0.31693658  0.03903471  0.01520227    -0.71800
O123        O  0.29268066  0.44005065  0.48084377    -0.71300
O124        O  0.26443789  0.02906938  0.06355437    -0.72000
O125        O  0.25390386  0.40895065  0.01084202    -0.71600
O126        O  0.32311434  0.50767742  0.48688274    -0.72200
O127        O  0.23290261  0.02416454  0.42651779    -0.71600
O128        O  0.24390140  0.08364713  0.01120646    -0.72300
O129        O  0.27295752  0.49884092  0.42930109    -0.71700
O130        O  0.20905252  0.07674967  0.48126004    -0.72200
O131        O  0.18094875  0.00740242  0.47822718    -0.72100
O132        O  0.18322204  0.45716711  0.00922919    -0.71900
C133        C  0.25502028  0.00387388  0.07963146     0.79900
C134        C  0.33568376  0.02812245  0.50358553     0.80400
C135        C  0.28111909  0.41606191  0.49689990     0.79300
C136        C  0.25582993  0.00828559  0.41424666     0.79700
C137        C  0.21898385  0.09859494  0.49998658     0.80900
C138        C  0.16662591  0.48740925  0.49577502     0.79900
Zn139      Zn  0.15352981  0.23494219  0.47542596     1.49700
Zn140      Zn  0.10403784  0.20706065  0.02417411     1.49400
Zn141      Zn  0.14033441  0.28217287  0.02591627     1.49100
Zn142      Zn  0.09103249  0.27421529  0.47327000     1.49500
O143        O  0.12084330  0.24646903  0.00058700    -1.81400
O144        O  0.16035726  0.18581548  0.48351857    -0.72000
O145        O  0.11426985  0.21502148  0.06757458    -0.71800
O146        O  0.18871581  0.28157448  0.01782745    -0.71300
O147        O  0.12708909  0.16096825  0.01422452    -0.72000
O148        O  0.19440241  0.25073104  0.48598939    -0.71600
O149        O  0.13510708  0.26772758  0.06986163    -0.72200
O150        O  0.08056871  0.32295355  0.48169693    -0.71600
O151        O  0.05494990  0.20724706  0.02215419    -0.72300
O152        O  0.11714230  0.32990671  0.02028436    -0.71700
O153        O  0.05020652  0.25467285  0.48358615    -0.72200
O154        O  0.10129180  0.26896110  0.42904653    -0.72100
O155        O  0.14845182  0.24397088  0.43208778    -0.71900
C156        C  0.15116827  0.15584408  0.99751690     0.79900
C157        C  0.12538333  0.23998442  0.08255754     0.80400
C158        C  0.20468013  0.26489333  0.99839248     0.79300
C159        C  0.09310676  0.33810585  0.00404556     0.79700
C160        C  0.03710306  0.22934180  0.00880001     0.80900
C161        C  0.12618132  0.25717801  0.41675099     0.79900
Zn162      Zn  0.34421975  0.27932291  0.46708326     1.49700
Zn163      Zn  0.38851694  0.27924403  0.01951275     1.49400
Zn164      Zn  0.35167653  0.20566993  0.01502746     1.49100
Zn165      Zn  0.40775802  0.23926792  0.46526931     1.49500
O166        O  0.37193982  0.24382722  0.99247170    -1.81400
O167        O  0.33768621  0.32802338  0.47683034    -0.72000
O168        O  0.37746298  0.26658125  0.06209974    -0.71800
O169        O  0.30397080  0.20682603  0.00679490    -0.71300
O170        O  0.36632185  0.32611681  0.01192136    -0.72000
O171        O  0.30249554  0.26361107  0.47829873    -0.71600
O172        O  0.35391984  0.21547875  0.05920801    -0.72200
O173        O  0.41749553  0.19007868  0.47305823    -0.71600
O174        O  0.43715568  0.27873779  0.01829554    -0.72300
O175        O  0.37542240  0.15890521  0.00958262    -0.71700
O176        O  0.44912471  0.25691324  0.47829113    -0.72200
O177        O  0.39761261  0.24651135  0.42075987    -0.72100
O178        O  0.35162473  0.27433847  0.42320034    -0.71900
C179        C  0.34466711  0.33491648  0.99323934     0.79900
C180        C  0.36409199  0.24067425  0.07445765     0.80400
C181        C  0.28771962  0.22884749  0.99169153     0.79300
C182        C  0.40150470  0.15340102  0.99592449     0.79700
C183        C  0.45582440  0.26093443  0.00212163     0.80900
C184        C  0.37370775  0.26076239  0.40807829     0.79900
C185        C  0.23931440  0.26253502  0.99978614    -0.13700
C186        C  0.25343526  0.23145520  0.99569542    -0.28800
H187        H  0.25321075  0.28570186  0.00333341     0.15400
H188        H  0.24352084  0.21732315  0.50003913     0.15900
C189        C  0.00286759  0.23111717  0.01377287    -0.13700
C190        C  0.48976846  0.25902924  0.00848541    -0.28800
H191        H  0.99160046  0.21694917  0.51212145     0.15400
H192        H  0.50303830  0.28285770  0.01077779     0.15900
C193        C  0.20092658  0.13116854  0.50316910    -0.13700
C194        C  0.16867583  0.12257448  0.99846413    -0.28800
H195        H  0.21421744  0.14543652  0.99884690     0.15400
H196        H  0.15573094  0.10825047  0.50991342     0.15900
C197        C  0.29831623  0.38267034  0.49821390    -0.13700
C198        C  0.33035527  0.38080772  0.50092469    -0.28800
H199        H  0.28452011  0.35910624  0.49673359     0.15400
H200        H  0.34215088  0.39154721  0.99813778     0.15900
C201        C  0.38283750  0.47810268  0.02114703    -0.13700
C202        C  0.36970252  0.02650218  0.50921146    -0.28800
H203        H  0.36753605  0.46689245  0.51808745     0.15400
H204        H  0.38208225  0.03642915  0.00905980     0.15900
C205        C  0.11902818  0.01136255  0.99937662    -0.13700
C206        C  0.13204000  0.48829381  0.49647724    -0.28800
H207        H  0.13248371  0.03521723  0.99821020     0.15400
H208        H  0.11890879  0.46420873  0.49711116     0.15900
C209        C  0.41876155  0.12028964  0.99891172    -0.13700
C210        C  0.45092029  0.11927036  0.99818494    -0.28800
H211        H  0.40965075  0.10935721  0.49152384     0.15400
H212        H  0.46451049  0.14303418  0.99864374     0.15900
C213        C  0.04516585  0.37481325  0.00599305    -0.13700
C214        C  0.07726195  0.37219483  0.00634196    -0.28800
H215        H  0.02945682  0.35769798  0.50478765     0.15400
H216        H  0.09176325  0.39529591  0.00701287     0.15900
C217        C  0.38489799  0.23987826  0.35682926    -0.13700
C218        C  0.37075420  0.26234323  0.37518093    -0.28800
H219        H  0.39961542  0.21930864  0.36608919     0.15400
H220        H  0.35476795  0.28172890  0.36587181     0.15900
C221        C  0.37319895  0.26301585  0.12523272    -0.13700
C222        C  0.36007349  0.23943561  0.10726113    -0.28800
H223        H  0.38752428  0.28362178  0.11568395     0.15400
H224        H  0.34695297  0.21794737  0.11691788     0.15900
C225        C  0.10592224  0.25860330  0.36504944    -0.13700
C226        C  0.13031662  0.25865207  0.38416872    -0.28800
H227        H  0.08183420  0.25757120  0.37344403     0.15400
H228        H  0.15432475  0.25686108  0.37565337     0.15900
C229        C  0.12668287  0.23587191  0.11549853    -0.13700
C230        C  0.12734353  0.26288317  0.13401400    -0.28800
H231        H  0.12482864  0.20989609  0.12479138     0.15400
H232        H  0.12696121  0.28895323  0.12473997     0.15900
C233        C  0.25485805  0.26131710  0.25591086    -0.13700
C234        C  0.23838241  0.23391514  0.24535669    -0.28800
H235        H  0.24374483  0.27972692  0.27074486     0.15400
H236        H  0.24957464  0.21556962  0.23051294     0.15900
C237        C  0.49030391  0.23209500  0.24296211    -0.13700
C238        C  0.00522876  0.26417269  0.23076124    -0.28800
H239        H  0.50175699  0.20970093  0.25317310     0.15400
H240        H  0.99337098  0.28600193  0.22006477     0.15900
C241        C  0.23896619  0.02286037  0.36201451    -0.13700
C242        C  0.25796146  0.00564654  0.38131778    -0.28800
H243        H  0.27409236  0.47439861  0.37517235     0.15400
H244        H  0.27590362  0.98832117  0.37265228     0.15900
C245        C  0.24752738  0.98320837  0.13177733    -0.13700
C246        C  0.25877736  0.00679723  0.11240028    -0.28800
H247        H  0.27732462  0.51801400  0.12302421     0.15400
H248        H  0.27041421  0.02972007  0.12086266     0.15900
C249        C  0.20275282  0.37652389  0.25774092    -0.13700
C250        C  0.17250459  0.37344871  0.24758426    -0.28800
H251        H  0.21351946  0.35563576  0.27066617     0.15400
H252        H  0.16174210  0.39454554  0.23490828     0.15900
C253        C  0.29201766  0.12660361  0.23999914    -0.13700
C254        C  0.32416758  0.12763460  0.24043223    -0.28800
H255        H  0.27839166  0.15039917  0.24068762     0.15400
H256        H  0.33768075  0.10384924  0.24276071     0.15900
C257        C  0.49167191  0.00530644  0.37954717    -0.13700
C258        C  0.51048585  0.98729213  0.36129127    -0.28800
H259        H  0.47319994  0.02173766  0.37009411     0.15400
H260        H  0.02771785  0.46889798  0.36904094     0.15900
C261        C  0.48884515  0.99072513  0.13066753    -0.13700
C262        C  0.50682010  0.00892794  0.11142370    -0.28800
H263        H  0.98193275  0.47220769  0.11986591     0.15400
H264        H  0.52277095  0.02857654  0.11979216     0.15900
C265        C  0.37071981  0.48229671  0.26146947    -0.13700
C266        C  0.38011478  0.01799828  0.26010816    -0.28800
H267        H  0.38457330  0.45863673  0.26118538     0.15400
H268        H  0.36745560  0.04244977  0.25969097     0.15900
C269        C  0.12841459  0.01788549  0.24152166    -0.13700
C270        C  0.12111414  0.48354796  0.24741119    -0.28800
H271        H  0.11493780  0.04180287  0.24203800     0.15400
H272        H  0.13475345  0.45975598  0.24655544     0.15900
C273        C  0.41965040  0.37261825  0.25765627    -0.13700
C274        C  0.45185785  0.37344218  0.25771300    -0.28800
H275        H  0.40613235  0.39626235  0.26022526     0.15400
H276        H  0.46527750  0.34948608  0.25749930     0.15900
C277        C  0.04499632  0.12235756  0.25699918    -0.13700
C278        C  0.07345740  0.12819260  0.24361169    -0.28800
H279        H  0.03581881  0.14083110  0.27289172     0.15400
H280        H  0.08275545  0.10952596  0.22794720     0.15900
Zn281      Zn  0.46773173  0.47728533  0.72962096     1.49700
Zn282      Zn  0.02845661  0.02309123  0.72038169     1.49400
Zn283      Zn  0.48626490  0.02756798  0.77561843     1.49100
Zn284      Zn  0.02462314  0.45814325  0.76458754     1.49500
O285        O  0.00205754  0.99692253  0.74791578    -1.81400
O286        O  0.47222268  0.48503044  0.68538673    -0.72000
O287        O  0.03643563  0.07127585  0.73279076    -0.71800
O288        O  0.43789399  0.03068824  0.77146203    -0.71300
O289        O  0.01656180  0.02022163  0.67650187    -0.72000
O290        O  0.42763266  0.49348306  0.74463495    -0.71600
O291        O  0.51147682  0.07295678  0.77341713    -0.72200
O292        O  0.02404587  0.46585036  0.80912958    -0.71600
O293        O  0.07102760  0.00610913  0.72572830    -0.72300
O294        O  0.49333071  0.00956912  0.81748845    -0.71700
O295        O  0.07141805  0.45976753  0.75308971    -0.72200
O296        O  0.00071626  0.41139957  0.76017640    -0.72100
O297        O  0.46094666  0.42822159  0.73640975    -0.71900
C298        C  0.99439069  0.00352627  0.66389772     0.79900
C299        C  0.03002022  0.08785092  0.75633152     0.80400
C300        C  0.41945751  0.01341148  0.75459334     0.79300
C301        C  0.50906146  0.48166604  0.83542479     0.79700
C302        C  0.08622850  0.48252711  0.73762965     0.80900
C303        C  0.47462093  0.40379623  0.75027746     0.79900
Zn304      Zn  0.22666366  0.47739361  0.72148275     1.49700
Zn305      Zn  0.23145241  0.04014182  0.76639719     1.49400
Zn306      Zn  0.26656982  0.46704120  0.78028957     1.49100
Zn307      Zn  0.28427626  0.01655012  0.72102792     1.49500
O308        O  0.25295569  0.50136655  0.75025095    -1.81400
O309        O  0.18420495  0.49483385  0.72591125    -0.72000
O310        O  0.23250141  0.03479767  0.81162007    -0.71800
O311        O  0.24054230  0.42159115  0.77611784    -0.71300
O312        O  0.18421363  0.04000648  0.75526442    -0.72000
O313        O  0.21742565  0.42829355  0.73168645    -0.71600
O314        O  0.25744412  0.48561760  0.82127876    -0.72200
O315        O  0.32520061  0.99762213  0.73320152    -0.71600
O316        O  0.25629210  0.08537783  0.75717446    -0.72300
O317        O  0.31512692  0.46311690  0.77979714    -0.71700
O318        O  0.29433718  0.06570072  0.72779359    -0.72200
O319        O  0.27425160  0.00873414  0.67690864    -0.72100
O320        O  0.23941612  0.48384319  0.67840613    -0.71900
C321        C  0.16885719  0.01720067  0.74075089     0.79900
C322        C  0.24397521  0.51253810  0.83132349     0.80400
C323        C  0.22164529  0.41100466  0.75568970     0.79300
C324        C  0.33512975  0.48013148  0.76411007     0.79700
C325        C  0.28224051  0.08974584  0.74293377     0.80900
C326        C  0.26224287  0.50046805  0.66664316     0.79900
Zn327      Zn  0.11176838  0.28535826  0.72250689     1.49700
Zn328      Zn  0.09556037  0.23099799  0.77705890     1.49400
Zn329      Zn  0.14283882  0.20947272  0.72621262     1.49100
Zn330      Zn  0.15913273  0.26821190  0.77473872     1.49500
O331        O  0.12707680  0.24856112  0.74947185    -1.81400
O332        O  0.06324280  0.28416593  0.72554670    -0.72000
O333        O  0.08482242  0.18129482  0.77070624    -0.71800
O334        O  0.13394292  0.21763984  0.68246508    -0.71300
O335        O  0.05516341  0.25048399  0.76579318    -0.72000
O336        O  0.12006469  0.27289889  0.67906125    -0.71600
O337        O  0.11875744  0.16431582  0.73605134    -0.72200
O338        O  0.19899544  0.25224267  0.76014255    -0.71600
O339        O  0.10544471  0.23851496  0.82070238    -0.72300
O340        O  0.19131647  0.20930952  0.72827519    -0.71700
O341        O  0.15500719  0.25710202  0.81826113    -0.72200
O342        O  0.16615704  0.31852068  0.76907816    -0.72100
O343        O  0.13593155  0.33168099  0.72979919    -0.71900
C344        C  0.04502207  0.26702791  0.74307855     0.79900
C345        C  0.09484092  0.15853467  0.75286981     0.80400
C346        C  0.12683851  0.24422489  0.66688717     0.79300
C347        C  0.20933577  0.23093796  0.74135475     0.79700
C348        C  0.13121555  0.24725870  0.83333214     0.80900
C349        C  0.15766884  0.33958709  0.74862350     0.79900
Zn350      Zn  0.34817478  0.22659917  0.71234029     1.49700
Zn351      Zn  0.40884815  0.26787340  0.71682011     1.49400
Zn352      Zn  0.35565574  0.28671509  0.76181440     1.49100
Zn353      Zn  0.39219122  0.21358218  0.76903653     1.49500
O354        O  0.37581391  0.24831666  0.74098293    -1.81400
O355        O  0.35935283  0.23460793  0.66891378    -0.72000
O356        O  0.42204120  0.31320261  0.73130982    -0.71800
O357        O  0.30881086  0.28710909  0.75111424    -0.71300
O358        O  0.39875950  0.27188340  0.67337696    -0.72000
O359        O  0.30586279  0.24356187  0.71906023    -0.71600
O360        O  0.38071159  0.33231690  0.75669745    -0.72200
O361        O  0.38226944  0.22780361  0.81193446    -0.71600
O362        O  0.44799761  0.24258595  0.72147203    -0.72300
O363        O  0.35609202  0.27730117  0.80624454    -0.71700
O364        O  0.44053349  0.21491863  0.76497821    -0.72200
O365        O  0.36963255  0.16640041  0.76239820    -0.72100
O366        O  0.34025071  0.17752347  0.72195820    -0.71900
C367        C  0.37935411  0.25531687  0.65733696     0.79900
C368        C  0.40860019  0.33650418  0.74622440     0.80400
C369        C  0.29290784  0.26571559  0.73557726     0.79300
C370        C  0.36756479  0.25353069  0.82291549     0.79700
C371        C  0.45862043  0.22830470  0.74507642     0.80900
C372        C  0.34843024  0.15762620  0.74337132     0.79900
Zn373      Zn  0.02935333  0.47543720  0.96697045     1.49700
Zn374      Zn  0.48240890  0.47119748  0.53145564     1.49400
Zn375      Zn  0.02133620  0.04716316  0.51793226     1.49100
Zn376      Zn  0.46522635  0.01460572  0.97182967     1.49500
O377        O  0.50122500  0.00814297  0.49651860    -1.81400
O378        O  0.03733750  0.42683686  0.97928874    -0.72000
O379        O  0.49173304  0.48705474  0.57376035    -0.71800
O380        O  0.06892206  0.04568201  0.50934161    -0.71300
O381        O  0.50563623  0.42379736  0.52638857    -0.72800
O382        O  0.07163617  0.49208343  0.97363645    -0.71600
O383        O  0.01871938  0.04115322  0.56288469    -0.72200
O384        O  0.45564397  0.06283894  0.98059740    -0.71600
O385        O  0.43367261  0.47079766  0.52862184    -0.72300
O386        O  0.99788086  0.09355122  0.50833276    -0.71700
O387        O  0.42543018  0.99575448  0.98402375    -0.72200
O388        O  0.47137431  0.00977246  0.92771210    -0.72100
O389        O  0.01836703  0.48073355  0.92268015    -0.71900
C390        C  0.02609259  0.41444058  0.49785300     0.79900
C391        C  0.50912188  0.01503235  0.57840692     0.80400
C392        C  0.08503684  0.02315240  0.49527130     0.79300
C393        C  0.47236990  0.09889069  0.49301092     0.79700
C394        C  0.41533210  0.48843291  0.51144472     0.80900
C395        C  0.49278019  0.99507258  0.91259474     0.79900
Zn396      Zn  0.23039908  0.46546348  0.52046877     1.49700
Zn397      Zn  0.26999169  0.04792830  0.52172268     1.49400
Zn398      Zn  0.28530017  0.47753898  0.97543718     1.49100
Zn399      Zn  0.22018657  0.01710101  0.96957531     1.49500
O400        O  0.25105064  0.99849765  0.99770533    -1.81400
O401        O  0.23353606  0.47058800  0.56541139    -0.72000
O402        O  0.31804154  0.05035696  0.51627618    -0.71800
O403        O  0.29232934  0.42800374  0.98134751    -0.71300
O404        O  0.26688764  0.03688191  0.56545469    -0.72000
O405        O  0.25552352  0.42047986  0.51162838    -0.71600
O406        O  0.32535908  0.49298440  0.99151085    -0.72200
O407        O  0.23249108  0.01325364  0.92573897    -0.71600
O408        O  0.24392962  0.09290647  0.51562398    -0.72300
O409        O  0.28067167  0.48665142  0.93122900    -0.71700
O410        O  0.20781336  0.06541741  0.97889092    -0.72200
O411        O  0.17967984  0.99542201  0.97728325    -0.72100
O412        O  0.18262505  0.46519381  0.51094365    -0.71900
C413        C  0.25692787  0.01131103  0.58074349     0.79900
C414        C  0.33412852  0.01553014  0.00373135     0.80400
C415        C  0.27951933  0.40393957  0.99627039     0.79300
C416        C  0.25629318  0.99870383  0.91375677     0.79700
C417        C  0.21859319  0.08859010  0.99588900     0.80900
C418        C  0.16820725  0.47820717  0.99203875     0.79900
Zn419      Zn  0.15026377  0.22818614  0.97178298     1.49700
Zn420      Zn  0.10676246  0.22140823  0.52837338     1.49400
Zn421      Zn  0.14251311  0.29642856  0.52159972     1.49100
Zn422      Zn  0.08791938  0.26804158  0.97683276     1.49500
O423        O  0.12318452  0.25688067  0.50064889    -1.81400
O424        O  0.16129290  0.17924384  0.98000254    -0.72000
O425        O  0.11602182  0.23657791  0.57094253    -0.71800
O426        O  0.19111629  0.29677372  0.51484325    -0.71300
O427        O  0.12993037  0.17374039  0.52265675    -0.72000
O428        O  0.19165764  0.24741250  0.97809067    -0.71600
O429        O  0.13694133  0.28908783  0.56609854    -0.72200
O430        O  0.08146873  0.31713891  0.98553031    -0.71600
O431        O  0.05787231  0.22218844  0.52466202    -0.72300
O432        O  0.11819762  0.34192917  0.51215306    -0.71700
O433        O  0.04795687  0.25159528  0.99076741    -0.72200
O434        O  0.09078555  0.26094944  0.93253809    -0.72100
O435        O  0.13729968  0.23479709  0.92880303    -0.71900
C436        C  0.15166021  0.16531283  0.50411555     0.79900
C437        C  0.12696209  0.26419119  0.58233752     0.80400
C438        C  0.20732930  0.27384480  0.50130309     0.79300
C439        C  0.09237243  0.34657215  0.49756727     0.79700
C440        C  0.03970442  0.23816171  0.50607958     0.80900
C441        C  0.11259244  0.24784197  0.91682994     0.79900
Zn442      Zn  0.34308714  0.26551560  0.96391492     1.49700
Zn443      Zn  0.39098545  0.28932617  0.52071287     1.49400
Zn444      Zn  0.35557910  0.21538786  0.51187315     1.49100
Zn445      Zn  0.40538842  0.22441574  0.96883123     1.49500
O446        O  0.37491441  0.25580871  0.49183650    -1.81400
O447        O  0.33589879  0.31506186  0.97243062    -0.72000
O448        O  0.38040716  0.27249506  0.56233448    -0.71800
O449        O  0.30769353  0.21558702  0.50566996    -0.71300
O450        O  0.36906154  0.33767399  0.51576874    -0.72000
O451        O  0.30028207  0.25031867  0.97377274    -0.71600
O452        O  0.35907464  0.22063206  0.55620475    -0.72200
O453        O  0.41392135  0.17631974  0.97945361    -0.71600
O454        O  0.43945059  0.28736452  0.51945915    -0.72300
O455        O  0.37975880  0.17032074  0.50311679    -0.71700
O456        O  0.44602136  0.24259065  0.98079714    -0.72200
O457        O  0.39891736  0.22766922  0.92449213    -0.72100
O458        O  0.35408243  0.25725488  0.91982621    -0.71900
C459        C  0.34703214  0.34732039  0.49769567     0.79900
C460        C  0.36862484  0.24470944  0.57298275     0.80400
C461        C  0.29076961  0.23964165  0.49409666     0.79300
C462        C  0.40564045  0.16610229  0.48888503     0.79700
C463        C  0.45842858  0.27186972  0.50186806     0.80900
C464        C  0.37744471  0.24130650  0.90824531     0.79900
C465        C  0.24195124  0.27223428  0.50278449    -0.13700
C466        C  0.25675260  0.24135586  0.49953171    -0.28800
H467        H  0.25533194  0.29602987  0.50476996     0.15400
H468        H  0.23948100  0.20794950  0.99483305     0.15900
C469        C  0.00543099  0.24052991  0.51085044    -0.13700
C470        C  0.49219874  0.26925578  0.50909457    -0.28800
H471        H  0.98922909  0.20737013  0.01416787     0.15400
H472        H  0.50593466  0.29293939  0.50950436     0.15900
C473        C  0.20081526  0.12158651  0.99769587    -0.13700
C474        C  0.16893835  0.13196995  0.50640512    -0.28800
H475        H  0.21412675  0.15520246  0.50229690     0.15400
H476        H  0.15528079  0.09874276  0.00023460     0.15900
C477        C  0.29593011  0.37011731  0.99666780    -0.13700
C478        C  0.32803399  0.36827536  0.99608608    -0.28800
H479        H  0.28188785  0.34666471  0.99743499     0.15400
H480        H  0.34410652  0.40390940  0.50515079     0.15900
C481        C  0.38124594  0.49055784  0.51670336    -0.13700
C482        C  0.36798443  0.01301131  0.00981679    -0.28800
H483        H  0.36925878  0.45430351  0.02156081     0.15400
H484        H  0.38342957  0.05013553  0.50752772     0.15900
C485        C  0.11952467  0.02184081  0.49803630    -0.13700
C486        C  0.13374372  0.48054907  0.99259819    -0.28800
H487        H  0.13274301  0.04582060  0.49629567     0.15400
H488        H  0.11986739  0.45706653  0.99478066     0.15900
C489        C  0.42318246  0.13317797  0.49108243    -0.13700
C490        C  0.45524543  0.13222066  0.49338258    -0.28800
H491        H  0.40521601  0.09660069  0.00104655     0.15400
H492        H  0.46865536  0.15592553  0.49578851     0.15900
C493        C  0.04303199  0.38111100  0.50099391    -0.13700
C494        C  0.07507058  0.37976102  0.49884825    -0.28800
H495        H  0.03069814  0.35172133  0.00766101     0.15400
H496        H  0.08868954  0.40350239  0.49779454     0.15900
C497        C  0.36334206  0.25649779  0.85569198    -0.13700
C498        C  0.38035080  0.23770049  0.87542152    -0.28800
H499        H  0.34672148  0.27566351  0.86376907     0.15400
H500        H  0.39802632  0.21973202  0.86725676     0.15900
C501        C  0.38064188  0.26068766  0.62476125    -0.13700
C502        C  0.36587269  0.23980751  0.60556789    -0.28800
H503        H  0.39521037  0.28173447  0.61633345     0.15400
H504        H  0.35238517  0.21786455  0.61389719     0.15900
C505        C  0.13416499  0.24591323  0.86607433    -0.13700
C506        C  0.10896640  0.24796349  0.88409042    -0.28800
H507        H  0.15785447  0.24495698  0.87561655     0.15400
H508        H  0.08543129  0.25149103  0.87463438     0.15900
C509        C  0.12784717  0.26808793  0.61521079    -0.13700
C510        C  0.12610113  0.24083637  0.63399579    -0.28800
H511        H  0.13084159  0.29385826  0.62412981     0.15400
H512        H  0.12504361  0.21492759  0.62498109     0.15900
C513        C  0.25861762  0.26368233  0.73901143    -0.13700
C514        C  0.24288547  0.23384939  0.73369264    -0.28800
H515        H  0.24670446  0.28553283  0.74908763     0.15400
H516        H  0.25461784  0.21189576  0.72361914     0.15900
C517        C  0.49271065  0.23047740  0.75040906    -0.13700
C518        C  0.01134958  0.26291453  0.73600193    -0.28800
H519        H  0.50330468  0.21129803  0.76532789     0.15400
H520        H  0.99939732  0.28334894  0.72346245     0.15900
C521        C  0.24202475  0.01658198  0.86181159    -0.13700
C522        C  0.25974617  0.99772181  0.88097447    -0.28800
H523        H  0.22415657  0.53467907  0.87272879     0.15400
H524        H  0.27771206  0.98042800  0.87229975     0.15900
C525        C  0.25143336  0.98684943  0.63179658    -0.13700
C526        C  0.26134585  0.01227244  0.61352490    -0.28800
H527        H  0.28211660  0.52156074  0.62477842     0.15400
H528        H  0.27266511  0.03488977  0.62292324     0.15900
C529        C  0.20300670  0.37876425  0.76025719    -0.13700
C530        C  0.17526607  0.37278533  0.74555461    -0.28800
H531        H  0.21168207  0.36014696  0.77673094     0.15400
H532        H  0.16643599  0.39172740  0.72942663     0.15900
C533        C  0.29940814  0.12302106  0.74385435    -0.13700
C534        C  0.33144349  0.12436357  0.74627740    -0.28800
H535        H  0.28572112  0.14677464  0.74249216     0.15400
H536        H  0.34503153  0.10094372  0.75043595     0.15900
C537        C  0.49073893  0.99733330  0.87973016    -0.13700
C538        C  0.51016108  0.97985964  0.86162560    -0.28800
H539        H  0.47270010  0.01423599  0.87015119     0.15400
H540        H  0.02967957  0.46480411  0.86739722     0.15900
C541        C  0.49613416  0.99658822  0.62992992    -0.13700
C542        C  0.51242607  0.01746567  0.61132697    -0.28800
H543        H  0.98008250  0.47114698  0.61866871     0.15400
H544        H  0.52786462  0.03718232  0.62038586     0.15900
C545        C  0.36888570  0.48007792  0.77140273    -0.13700
C546        C  0.38521152  0.01287891  0.75939308    -0.28800
H547        H  0.38164943  0.45568881  0.77132847     0.15400
H548        H  0.37225774  0.03714732  0.75923978     0.15900
C549        C  0.13431113  0.01594373  0.74111872    -0.13700
C550        C  0.12071457  0.48467032  0.73894547    -0.28800
H551        H  0.12092705  0.03989695  0.74210121     0.15400
H552        H  0.13432546  0.46085670  0.74043258     0.15900
C553        C  0.42603939  0.36899838  0.75067541    -0.13700
C554        C  0.45816330  0.37021587  0.75079662    -0.28800
H555        H  0.41232327  0.39254432  0.75323319     0.15400
H556        H  0.47211107  0.34661884  0.75070996     0.15900
C557        C  0.04790207  0.12022882  0.76206030    -0.13700
C558        C  0.07706847  0.12559082  0.75006202    -0.28800
H559        H  0.03758579  0.13923494  0.77681986     0.15400
H560        H  0.08737439  0.10596232  0.73589102     0.15900
Zn561      Zn  0.46424099  0.97747844  0.22435689     1.49700
Zn562      Zn  0.03135143  0.52109711  0.21782078     1.49400
Zn563      Zn  0.48530839  0.53005670  0.28121666     1.49100
Zn564      Zn  0.01766945  0.96014797  0.26809619     1.49500
O565        O  0.00278539  0.49731790  0.24513654    -1.81400
O566        O  0.47113429  0.97870422  0.17977548    -0.72000
O567        O  0.03864276  0.57060006  0.22800536    -0.71800
O568        O  0.43698106  0.53050791  0.27800094    -0.71300
O569        O  0.02100626  0.51394758  0.17347884    -0.72000
O570        O  0.42407763  0.99811142  0.23480569    -0.71600
O571        O  0.50859907  0.57679569  0.27651017    -0.72200
O572        O  0.01697448  0.96602744  0.31322216    -0.71600
O573        O  0.07391235  0.50471079  0.22751197    -0.72300
O574        O  0.49441809  0.51400266  0.32328541    -0.71700
O575        O  0.06458169  0.96221053  0.25719840    -0.72200
O576        O  0.99452755  0.91358396  0.26030851    -0.72100
O577        O  0.45509199  0.93006165  0.23774142    -0.71900
C578        C  0.99988204  0.49516944  0.16127244     0.79900
C579        C  0.03059142  0.58826137  0.25053410     0.80400
C580        C  0.41888102  0.51587734  0.25905640     0.79300
C581        C  0.50721698  0.99018926  0.32847046     0.79700
C582        C  0.07938244  0.98457636  0.24134353     0.80900
C583        C  0.46938864  0.90723488  0.25310878     0.79900
Zn584      Zn  0.21811846  0.97591525  0.22372299     1.49700
Zn585      Zn  0.23493221  0.53471393  0.27537148     1.49400
Zn586      Zn  0.26376334  0.97104291  0.27878871     1.49100
Zn587      Zn  0.28508352  0.51992153  0.22505026     1.49500
O588        O  0.24657197  0.00276436  0.24794539    -1.81400
O589        O  0.17653145  0.99520604  0.22718732    -0.72000
O590        O  0.24356660  0.52293962  0.31955526    -0.71800
O591        O  0.24021500  0.92349030  0.27954066    -0.71300
O592        O  0.18654767  0.53308542  0.26841076    -0.72000
O593        O  0.20886737  0.92985677  0.24004161    -0.71600
O594        O  0.25584490  0.99119584  0.31954265    -0.72200
O595        O  0.32567164  0.50310188  0.23808812    -0.71600
O596        O  0.25693532  0.58255062  0.26819314    -0.72300
O597        O  0.31211716  0.97010055  0.27469855    -0.71700
O598        O  0.29225315  0.56878548  0.23370777    -0.72200
O599        O  0.27889983  0.51409840  0.18070493    -0.72100
O600        O  0.22858238  0.97267287  0.18039631    -0.71900
C601        C  0.17021858  0.51621514  0.24929663     0.79900
C602        C  0.24104212  0.01744146  0.32928463     0.80400
C603        C  0.21764446  0.91273071  0.26288733     0.79300
C604        C  0.33021482  0.98640452  0.25652789     0.79700
C605        C  0.28086358  0.59021113  0.25188651     0.80900
C606        C  0.24901980  0.98811466  0.16446603     0.79900
Zn607      Zn  0.10673577  0.79069240  0.23388792     1.49700
Zn608      Zn  0.09058268  0.72901392  0.28116294     1.49400
Zn609      Zn  0.14082700  0.71649859  0.23114000     1.49100
Zn610      Zn  0.15314644  0.76905875  0.28659202     1.49500
O611        O  0.12309918  0.75139928  0.25761719    -1.81400
O612        O  0.05816010  0.78903941  0.23427384    -0.72000
O613        O  0.08484327  0.67882384  0.27360721    -0.71800
O614        O  0.13523621  0.73099603  0.18747171    -0.71300
O615        O  0.05084410  0.74427681  0.26513445    -0.72000
O616        O  0.11707991  0.78468085  0.19024381    -0.71600
O617        O  0.11689763  0.66990133  0.23518559    -0.72200
O618        O  0.19463999  0.74884992  0.27928226    -0.71600
O619        O  0.09192430  0.73898913  0.32505222    -0.72300
O620        O  0.18867868  0.71678500  0.23835104    -0.71700
O621        O  0.13931287  0.76304809  0.32952168    -0.72200
O622        O  0.16397432  0.81861713  0.27918295    -0.72100
O623        O  0.12923511  0.83619003  0.24481760    -0.71900
C624        C  0.04040750  0.76613133  0.24636278     0.79900
C625        C  0.09444823  0.65999405  0.25241437     0.80400
C626        C  0.12670384  0.75929228  0.17497171     0.79300
C627        C  0.20603107  0.73239284  0.25742056     0.79700
C628        C  0.11368765  0.75191361  0.34103298     0.80900
C629        C  0.15328753  0.84179858  0.26156474     0.79900
Zn630      Zn  0.34225280  0.73131850  0.22279386     1.49700
Zn631      Zn  0.40175929  0.77477690  0.22225976     1.49400
Zn632      Zn  0.35712077  0.78375228  0.27711671     1.49100
Zn633      Zn  0.39593101  0.71178120  0.26965307     1.49500
O634        O  0.37420491  0.75005027  0.24904122    -1.81400
O635        O  0.35106853  0.73801926  0.17852111    -0.72000
O636        O  0.41410520  0.81962974  0.23774390    -0.71800
O637        O  0.30882276  0.78202010  0.27382217    -0.71300
O638        O  0.38661011  0.77996071  0.18043412    -0.72000
O639        O  0.30106661  0.75011650  0.23316367    -0.71600
O640        O  0.37934554  0.83179964  0.27311017    -0.72200
O641        O  0.39590554  0.72012951  0.31470266    -0.71600
O642        O  0.44285712  0.75347183  0.22056388    -0.72300
O643        O  0.36679649  0.76766445  0.31926145    -0.71700
O644        O  0.44246539  0.71287625  0.25638232    -0.72200
O645        O  0.37137496  0.66572496  0.26372958    -0.72100
O646        O  0.33317724  0.68241479  0.23245586    -0.71900
C647        C  0.36845673  0.76050830  0.16564232     0.79900
C648        C  0.40379702  0.83961589  0.25759424     0.80400
C649        C  0.29066137  0.76596002  0.25576585     0.79300
C650        C  0.38261042  0.74282832  0.33086993     0.79700
C651        C  0.45705225  0.73205841  0.23740622     0.80900
C652        C  0.34559243  0.65979701  0.24953135     0.79900
Zn653      Zn  0.02963216  0.98314851  0.47181656     1.49700
Zn654      Zn  0.48247975  0.96180597  0.02575738     1.49400
Zn655      Zn  0.02303673  0.53881431  0.01428968     1.49100
Zn656      Zn  0.46594763  0.52441868  0.47725761     1.49500
O657        O  0.49998458  0.49420654  0.00358588    -1.81400
O658        O  0.03748875  0.93436344  0.48422544    -0.72000
O659        O  0.49164667  0.97760901  0.06797586    -0.71800
O660        O  0.07017132  0.53743551  0.00390151    -0.71300
O661        O  0.50563661  0.91490595  0.02047057    -0.72800
O662        O  0.07224351  0.00015603  0.47941279    -0.71600
O663        O  0.02210428  0.53144502  0.05920465    -0.72200
O664        O  0.45737953  0.57349296  0.48403969    -0.71600
O665        O  0.43405476  0.96141974  0.02367439    -0.72300
O666        O  0.99887765  0.58517246  0.00700940    -0.71700
O667        O  0.42554042  0.50666293  0.48990556    -0.72200
O668        O  0.47280101  0.51775583  0.43339344    -0.72100
O669        O  0.01802542  0.98746570  0.42740246    -0.71900
C670        C  0.02947498  0.90624892  0.00618695     0.79900
C671        C  0.50939700  0.50490051  0.08467180     0.80400
C672        C  0.08532119  0.51469573  0.98914746     0.79300
C673        C  0.46967692  0.58503113  0.00023932     0.79700
C674        C  0.41559006  0.97849103  0.00627126     0.80900
C675        C  0.49470911  0.50329631  0.41870718     0.79900
Zn676      Zn  0.23403587  0.96277315  0.02492944     1.49700
Zn677      Zn  0.26676226  0.52909942  0.02858485     1.49400
Zn678      Zn  0.28420517  0.98794084  0.47423638     1.49100
Zn679      Zn  0.22055714  0.53116494  0.47565076     1.49500
O680        O  0.25003990  0.50608882  0.50080618    -1.81400
O681        O  0.24303757  0.97684148  0.06808751    -0.72000
O682        O  0.31547496  0.53019043  0.02798177    -0.71800
O683        O  0.29242916  0.93913473  0.48439691    -0.71300
O684        O  0.25725526  0.51168351  0.07013763    -0.72000
O685        O  0.25689611  0.91499857  0.01961138    -0.71600
O686        O  0.32475991  0.00536329  0.48641344    -0.72200
O687        O  0.23052150  0.53248199  0.43196114    -0.71600
O688        O  0.24242198  0.57587978  0.02441555    -0.72300
O689        O  0.27714470  0.99332041  0.42987563    -0.71700
O690        O  0.21006567  0.57751798  0.48992652    -0.72200
O691        O  0.17956446  0.51118549  0.48067593    -0.72100
O692        O  0.18558901  0.96352384  0.01907114    -0.71900
C693        C  0.24422062  0.48488076  0.08129648     0.79900
C694        C  0.33299841  0.52412737  0.50941882     0.80400
C695        C  0.28125108  0.91784222  0.50323579     0.79300
C696        C  0.25134543  0.51704344  0.41668794     0.79700
C697        C  0.21923996  0.59603471  0.51136744     0.80900
C698        C  0.16918236  0.98992071  0.49956554     0.79900
Zn699      Zn  0.15557701  0.73538625  0.48488156     1.49700
Zn700      Zn  0.10558930  0.70677573  0.03140027     1.49400
Zn701      Zn  0.14239356  0.78220656  0.03463502     1.49100
Zn702      Zn  0.09396314  0.77656273  0.48062064     1.49500
O703        O  0.12467699  0.74550219  0.00870297    -1.81400
O704        O  0.16552175  0.68696387  0.49470884    -0.72000
O705        O  0.11307124  0.71550406  0.07543507    -0.71800
O706        O  0.19148585  0.78463125  0.02900822    -0.71300
O707        O  0.12832325  0.65919968  0.02363246    -0.72000
O708        O  0.19482927  0.75463134  0.49596164    -0.71600
O709        O  0.13567011  0.76736721  0.07814539    -0.72200
O710        O  0.08518410  0.82568999  0.48982317    -0.71600
O711        O  0.05696002  0.70915399  0.02473450    -0.72300
O712        O  0.11769731  0.82885436  0.02811816    -0.71700
O713        O  0.05211172  0.75897828  0.48824159    -0.72200
O714        O  0.10517808  0.77018666  0.43685672    -0.72100
O715        O  0.15072085  0.74196084  0.44098584    -0.71900
C716        C  0.15347992  0.65313178  0.00859138     0.79900
C717        C  0.12457157  0.74014664  0.09064501     0.80400
C718        C  0.20842029  0.76419283  0.01337656     0.79300
C719        C  0.09493877  0.83670450  0.01018530     0.79700
C720        C  0.04050302  0.72890235  0.00744825     0.80900
C721        C  0.12927447  0.75600900  0.42510120     0.79900
Zn722      Zn  0.34116608  0.77849790  0.47457312     1.49700
Zn723      Zn  0.38948335  0.78198309  0.02895099     1.49400
Zn724      Zn  0.35637027  0.70676841  0.02254415     1.49100
Zn725      Zn  0.40480207  0.73872507  0.47220931     1.49500
O726        O  0.37512296  0.74646112  0.00098449    -1.81400
O727        O  0.33594060  0.82811451  0.48259218    -0.72000
O728        O  0.37657516  0.76790318  0.07058187    -0.71800
O729        O  0.30880817  0.70797946  0.01676378    -0.71300
O730        O  0.36678250  0.82897692  0.02124254    -0.72000
O731        O  0.29981584  0.76435890  0.48916100    -0.71600
O732        O  0.35955885  0.71388236  0.06675688    -0.72200
O733        O  0.41562208  0.68973307  0.48092110    -0.71600
O734        O  0.43820994  0.78171308  0.03022549    -0.72300
O735        O  0.37919500  0.66036370  0.01438726    -0.71700
O736        O  0.44574372  0.75844365  0.48279106    -0.72200
O737        O  0.39382585  0.74471898  0.42798647    -0.72100
O738        O  0.34700082  0.77084104  0.43023501    -0.71900
C739        C  0.34543246  0.83758546  0.00213472     0.79900
C740        C  0.36615338  0.74008677  0.08237855     0.80400
C741        C  0.29161404  0.73046082  0.00334613     0.79300
C742        C  0.40496463  0.65516633  0.00019881     0.79700
C743        C  0.45788577  0.76388991  0.01512615     0.80900
C744        C  0.36943718  0.75766140  0.41516293     0.79900
C745        C  0.24313002  0.76303837  0.01471943    -0.13700
C746        C  0.25782406  0.73242274  0.00972786    -0.28800
H747        H  0.25648762  0.78672899  0.01745430     0.15400
H748        H  0.24208187  0.71880226  0.51386995     0.15900
C749        C  0.00585913  0.73074431  0.00964627    -0.13700
C750        C  0.49148630  0.76230002  0.02320056    -0.28800
H751        H  0.99088739  0.71543277  0.50770868     0.15400
H752        H  0.50477429  0.78629110  0.02342587     0.15900
C753        C  0.20179217  0.62872601  0.51619057    -0.13700
C754        C  0.17024226  0.61935258  0.01017178    -0.28800
H755        H  0.21606066  0.64128538  0.01391035     0.15400
H756        H  0.15605633  0.60672591  0.51146128     0.15900
C757        C  0.29742940  0.88396781  0.50626213    -0.13700
C758        C  0.32953209  0.88140253  0.50623585    -0.28800
H759        H  0.28302332  0.86080993  0.50767973     0.15400
H760        H  0.34260183  0.89457948  0.00402860     0.15900
C761        C  0.38183268  0.98147695  0.01221456    -0.13700
C762        C  0.36690819  0.52187073  0.51555116    -0.28800
H763        H  0.37035759  0.97192414  0.51628064     0.15400
H764        H  0.38186611  0.53305715  0.02129558     0.15900
C765        C  0.11969304  0.51203658  0.99113625    -0.13700
C766        C  0.13466140  0.99124241  0.50207393    -0.28800
H767        H  0.13358025  0.53559228  0.99200911     0.15400
H768        H  0.12159758  0.96760374  0.50651291     0.15900
C769        C  0.42119186  0.62123719  0.00148141    -0.13700
C770        C  0.45326850  0.61883090  0.00120359    -0.28800
H771        H  0.40706284  0.60882357  0.49945830     0.15400
H772        H  0.46759227  0.64205687  0.00222583     0.15900
C773        C  0.04603559  0.87266204  0.01076604    -0.13700
C774        C  0.07815986  0.87045548  0.01192920    -0.28800
H775        H  0.03077464  0.85864353  0.51099994     0.15400
H776        H  0.09223383  0.89383748  0.01308080     0.15900
C777        C  0.38577592  0.74036933  0.36389709    -0.13700
C778        C  0.36677153  0.75845729  0.38212439    -0.28800
H779        H  0.40359004  0.72311010  0.37334114     0.15400
H780        H  0.34806199  0.77439997  0.37247568     0.15900
C781        C  0.36903146  0.76397306  0.13292404    -0.13700
C782        C  0.36152382  0.73776139  0.11497275    -0.28800
H783        H  0.37883683  0.78761966  0.12349020     0.15400
H784        H  0.35292844  0.71359475  0.12448999     0.15900
C785        C  0.10878897  0.75403895  0.37355724    -0.13700
C786        C  0.13332575  0.75583156  0.39249162    -0.28800
H787        H  0.08482132  0.75232015  0.38218161     0.15400
H788        H  0.15733667  0.75464021  0.38391477     0.15900
C789        C  0.12518319  0.73625450  0.12363708    -0.13700
C790        C  0.12773870  0.76330820  0.14202274    -0.28800
H791        H  0.12200150  0.71050631  0.13307787     0.15400
H792        H  0.12863245  0.78931879  0.13267463     0.15900
C793        C  0.25678321  0.76259721  0.26225595    -0.13700
C794        C  0.24023934  0.73491822  0.25249108    -0.28800
H795        H  0.24570430  0.78183872  0.27630710     0.15400
H796        H  0.25139095  0.71573341  0.23842822     0.15900
C797        C  0.49165408  0.73301747  0.23725627    -0.13700
C798        C  0.00713514  0.76253112  0.23761940    -0.28800
H799        H  0.50393141  0.71205094  0.24882700     0.15400
H800        H  0.99534429  0.78445559  0.22699702     0.15900
C801        C  0.26130276  0.49625381  0.36552949    -0.13700
C802        C  0.24922862  0.52018561  0.38371066    -0.28800
H803        H  0.22175037  0.04125114  0.37030560     0.15400
H804        H  0.23522031  0.54125538  0.37430334     0.15900
C805        C  0.26014353  0.50019548  0.13253960    -0.13700
C806        C  0.24211120  0.48108125  0.11422008    -0.28800
H807        H  0.23458014  0.96105492  0.12349115     0.15400
H808        H  0.22588340  0.46208084  0.12349142     0.15900
C809        C  0.19999122  0.88047202  0.27011194    -0.13700
C810        C  0.17045419  0.87510772  0.25881939    -0.28800
H811        H  0.21112531  0.86117760  0.28453601     0.15400
H812        H  0.15947312  0.89494114  0.24481934     0.15900
C813        C  0.29699519  0.62406477  0.25391777    -0.13700
C814        C  0.32908740  0.62623873  0.25259801    -0.28800
H815        H  0.28271694  0.64727874  0.25589206     0.15400
H816        H  0.34336230  0.60287402  0.25331689     0.15900
C817        C  0.49272159  0.50461774  0.38579390    -0.13700
C818        C  0.51081543  0.48515690  0.36796437    -0.28800
H819        H  0.47526470  0.52202126  0.37591661     0.15400
H820        H  0.02672531  0.96707719  0.37176633     0.15900
C821        C  0.49704682  0.48967323  0.13686192    -0.13700
C822        C  0.51305317  0.50943546  0.11728430    -0.28800
H823        H  0.96698495  0.98056423  0.12245194     0.15400
H824        H  0.52807651  0.53014014  0.12526066     0.15900
C825        C  0.36444547  0.98754905  0.26149262    -0.13700
C826        C  0.38486001  0.51353091  0.26373958    -0.28800
H827        H  0.37725975  0.96328806  0.26376055     0.15400
H828        H  0.37113655  0.53711784  0.26596522     0.15900
C829        C  0.13566006  0.51438620  0.25111142    -0.13700
C830        C  0.11382834  0.98673782  0.24242178    -0.28800
H831        H  0.12211226  0.53784341  0.25469585     0.15400
H832        H  0.12736890  0.96297909  0.24497874     0.15900
C833        C  0.42110243  0.87241131  0.26157969    -0.13700
C834        C  0.45296728  0.87394694  0.25775075    -0.28800
H835        H  0.40757043  0.89578998  0.26551863     0.15400
H836        H  0.46676276  0.85034598  0.25607160     0.15900
C837        C  0.04785521  0.62082794  0.25683651    -0.13700
C838        C  0.07753857  0.62707947  0.24645858    -0.28800
H839        H  0.03667827  0.63917424  0.27167820     0.15400
H840        H  0.08876957  0.60864518  0.23173221     0.15900
Zn841      Zn  0.47060220  0.97616220  0.72234209     1.49700
Zn842      Zn  0.02920751  0.52190748  0.71568515     1.49400
Zn843      Zn  0.48621954  0.52738617  0.78350553     1.49100
Zn844      Zn  0.02360220  0.95675346  0.76682781     1.49500
O845        O  0.00280217  0.49680549  0.74405347    -1.81400
O846        O  0.47789772  0.98164939  0.67811849    -0.72000
O847        O  0.03716942  0.57119824  0.72624717    -0.71800
O848        O  0.43753377  0.52930562  0.78214615    -0.71300
O849        O  0.01667470  0.51563902  0.67205695    -0.72000
O850        O  0.42970926  0.99444671  0.73390397    -0.71600
O851        O  0.51060328  0.57370830  0.77977257    -0.72200
O852        O  0.02266042  0.96110391  0.81215485    -0.71600
O853        O  0.07215373  0.50536894  0.72202522    -0.72300
O854        O  0.49572910  0.50875906  0.82490438    -0.71700
O855        O  0.07048123  0.95950649  0.75562997    -0.72200
O856        O  0.00008570  0.91044761  0.75829855    -0.72100
O857        O  0.46204911  0.92793075  0.73248215    -0.71900
C858        C  0.99688003  0.49497422  0.66025544     0.79900
C859        C  0.03073009  0.58789435  0.74976211     0.80400
C860        C  0.41839938  0.51170871  0.76621726     0.79300
C861        C  0.50850955  0.98414526  0.82882381     0.79700
C862        C  0.08517287  0.98277653  0.74063575     0.80900
C863        C  0.47491239  0.90477813  0.74858632     0.79900
Zn864      Zn  0.22374517  0.97334714  0.72350013     1.49700
Zn865      Zn  0.23118986  0.54113192  0.76864797     1.49400
Zn866      Zn  0.26886893  0.96709337  0.77845166     1.49100
Zn867      Zn  0.28794847  0.51936576  0.72745639     1.49500
O868        O  0.25215061  0.99958970  0.74821346    -1.81400
O869        O  0.18240208  0.99305319  0.72704331    -0.72000
O870        O  0.23208552  0.53540218  0.81388543    -0.71800
O871        O  0.24479175  0.91988169  0.77859033    -0.71300
O872        O  0.18425525  0.53986897  0.75648125    -0.72000
O873        O  0.21349789  0.92701685  0.73913281    -0.71600
O874        O  0.26010598  0.98647709  0.81911124    -0.72200
O875        O  0.32697592  0.49940854  0.74233265    -0.71600
O876        O  0.25506414  0.58736204  0.76070133    -0.72300
O877        O  0.31733904  0.96598306  0.77469484    -0.71700
O878        O  0.29708441  0.56786439  0.73660637    -0.72200
O879        O  0.28302207  0.51520910  0.68268679    -0.72100
O880        O  0.23418526  0.97196114  0.68011672    -0.71900
C881        C  0.16975666  0.51763266  0.74057046     0.79900
C882        C  0.24518957  0.01250525  0.82910409     0.80400
C883        C  0.22198148  0.90966115  0.76196841     0.79300
C884        C  0.33557376  0.98118110  0.75592527     0.79700
C885        C  0.28267610  0.59197473  0.74967366     0.80900
C886        C  0.25375674  0.98927065  0.66462855     0.79900
Zn887      Zn  0.10524415  0.79237444  0.73697858     1.49700
Zn888      Zn  0.09306961  0.72718518  0.78155607     1.49400
Zn889      Zn  0.13931453  0.71833821  0.72837466     1.49100
Zn890      Zn  0.15580588  0.76716633  0.78532163     1.49500
O891        O  0.12363906  0.75154645  0.75737445    -1.81400
O892        O  0.05655272  0.79072712  0.74140436    -0.72000
O893        O  0.08666934  0.67750939  0.77243427    -0.71800
O894        O  0.13068815  0.73593661  0.68630154    -0.71300
O895        O  0.05238806  0.74331902  0.76958978    -0.72000
O896        O  0.11196638  0.78900928  0.69237479    -0.71600
O897        O  0.11557199  0.67128015  0.73148669    -0.72200
O898        O  0.19676001  0.74704753  0.77452212    -0.71600
O899        O  0.09665445  0.73535776  0.82506298    -0.72300
O900        O  0.18762122  0.71880522  0.73195530    -0.71700
O901        O  0.14377743  0.76017069  0.82905683    -0.72200
O902        O  0.16696889  0.81672063  0.77854489    -0.72100
O903        O  0.12961262  0.83696349  0.74792852    -0.71900
C904        C  0.04002009  0.76674810  0.75359497     0.79900
C905        C  0.09451466  0.66011916  0.74973799     0.80400
C906        C  0.12105008  0.76471764  0.67554261     0.79300
C907        C  0.20639791  0.73296229  0.75067557     0.79700
C908        C  0.11845448  0.74839487  0.84080636     0.80900
C909        C  0.15534085  0.84104938  0.76272789     0.79900
Zn910      Zn  0.34592441  0.73044237  0.72098674     1.49700
Zn911      Zn  0.40770983  0.76957937  0.72482369     1.49400
Zn912      Zn  0.35466540  0.79034975  0.77043570     1.49100
Zn913      Zn  0.39114637  0.71720931  0.77782848     1.49500
O914        O  0.37435071  0.75159579  0.74947096    -1.81400
O915        O  0.35694452  0.73810587  0.67711063    -0.72000
O916        O  0.42035267  0.81519260  0.73781603    -0.71800
O917        O  0.30694625  0.78919509  0.76185986    -0.71300
O918        O  0.39826338  0.77280647  0.68131616    -0.72000
O919        O  0.30318368  0.74691233  0.72863824    -0.71600
O920        O  0.37957971  0.83610753  0.76299873    -0.72200
O921        O  0.38166702  0.73158874  0.82075820    -0.71600
O922        O  0.44708407  0.74479468  0.73032596    -0.72300
O923        O  0.35703074  0.78201893  0.81519610    -0.71700
O924        O  0.43962972  0.71882299  0.77448791    -0.72200
O925        O  0.36872394  0.67006411  0.77105115    -0.72100
O926        O  0.33880550  0.68129014  0.73088983    -0.71900
C927        C  0.37805535  0.75736542  0.66535998     0.79900
C928        C  0.40732162  0.83945335  0.75183394     0.80400
C929        C  0.29056684  0.76808484  0.74638955     0.79300
C930        C  0.36815497  0.75799735  0.83185180     0.79700
C931        C  0.45775094  0.73182344  0.75446063     0.80900
C932        C  0.34740657  0.66129976  0.75211666     0.79900
Zn933      Zn  0.02957727  0.97351724  0.97160626     1.49700
Zn934      Zn  0.48483009  0.97364863  0.52527412     1.49400
Zn935      Zn  0.01881892  0.54467036  0.51492252     1.49100
Zn936      Zn  0.46594455  0.51182818  0.97888784     1.49500
O937        O  0.49881431  0.50602261  0.50288313    -1.81400
O938        O  0.03773176  0.92468493  0.98389122    -0.72000
O939        O  0.49578100  0.98867849  0.56716037    -0.71800
O940        O  0.06648573  0.54324859  0.50721445    -0.71300
O941        O  0.50661322  0.92586545  0.51987364    -0.72800
O942        O  0.07190008  0.99050627  0.97990030    -0.71600
O943        O  0.01549185  0.53630346  0.55939663    -0.72200
O944        O  0.45641502  0.56094259  0.98607161    -0.71600
O945        O  0.43619774  0.97453327  0.52389931    -0.72300
O946        O  0.99572187  0.59148333  0.50653821    -0.71700
O947        O  0.42596749  0.49289786  0.99208397    -0.72200
O948        O  0.47277229  0.50574914  0.93488274    -0.72100
O949        O  0.01919998  0.97823846  0.92700256    -0.71900
C950        C  0.02884740  0.91563240  0.50619287     0.79900
C951        C  0.50442967  0.51393347  0.58482131     0.80400
C952        C  0.08267213  0.52121229  0.49266286     0.79300
C953        C  0.46976506  0.59717249  0.49934000     0.79700
C954        C  0.41790794  0.99238652  0.50688456     0.80900
C955        C  0.49444712  0.49136819  0.91978703     0.79900
Zn956      Zn  0.23467733  0.97306055  0.52502591     1.49700
Zn957      Zn  0.26631060  0.53924566  0.53023446     1.49400
Zn958      Zn  0.28258059  0.97650880  0.97361732     1.49100
Zn959      Zn  0.22357698  0.51921952  0.97157788     1.49500
O960        O  0.25133377  0.49508270  0.99956488    -1.81400
O961        O  0.24388251  0.98538998  0.56840181    -0.72000
O962        O  0.31451633  0.54015720  0.52708079    -0.71800
O963        O  0.28987563  0.92734345  0.98252821    -0.71300
O964        O  0.25890723  0.52022920  0.57179756    -0.72000
O965        O  0.25718387  0.92549445  0.51921151    -0.71600
O966        O  0.32286925  0.99249966  0.98709033    -0.72200
O967        O  0.23634681  0.51727397  0.92798966    -0.71600
O968        O  0.24245874  0.58667998  0.52813531    -0.72300
O969        O  0.27742647  0.98373167  0.92951955    -0.71700
O970        O  0.21220214  0.56655816  0.98454781    -0.72200
O971        O  0.18201841  0.49989403  0.97531144    -0.72100
O972        O  0.18621279  0.97390162  0.51905770    -0.71900
C973        C  0.24587840  0.49309670  0.58235699     0.79900
C974        C  0.33453530  0.51152266  0.01296302     0.80400
C975        C  0.27982860  0.90665834  0.00241649     0.79300
C976        C  0.25968051  0.50226026  0.91570098     0.79700
C977        C  0.22008707  0.58509314  0.00653302     0.80900
C978        C  0.16828626  0.97879690  0.99933814     0.79900
Zn979      Zn  0.15675994  0.72518320  0.98418337     1.49700
Zn980      Zn  0.10309257  0.71600103  0.53085239     1.49400
Zn981      Zn  0.13952921  0.79097180  0.53604071     1.49100
Zn982      Zn  0.09512794  0.76690608  0.98061558     1.49500
O983        O  0.12283812  0.75497406  0.50903669    -1.81400
O984        O  0.16548142  0.67614784  0.99192350    -0.72000
O985        O  0.10833018  0.72436561  0.57499814    -0.71800
O986        O  0.18858824  0.79304224  0.53202663    -0.71300
O987        O  0.12664685  0.66923992  0.52420234    -0.72000
O988        O  0.19620095  0.74266279  0.99601616    -0.71600
O989        O  0.13098228  0.77601056  0.57914317    -0.72200
O990        O  0.08576959  0.81586508  0.99029941    -0.71600
O991        O  0.05493959  0.71685483  0.52259095    -0.72300
O992        O  0.11550569  0.83759612  0.52913380    -0.71700
O993        O  0.05304110  0.74893267  0.98830430    -0.72200
O994        O  0.10755610  0.76248671  0.93679206    -0.72100
O995        O  0.15335699  0.73472009  0.94080898    -0.71900
C996        C  0.15289115  0.66379854  0.51081136     0.79900
C997        C  0.11921576  0.74871598  0.59087781     0.80400
C998        C  0.20616761  0.77462954  0.51521324     0.79300
C999        C  0.09369488  0.84599634  0.51038938     0.79700
C1000       C  0.03902260  0.73761309  0.50582633     0.80900
C1001       C  0.13229154  0.74953561  0.92506212     0.79900
Zn1002     Zn  0.34517644  0.76778969  0.97326159     1.49700
Zn1003     Zn  0.38920731  0.78974236  0.52741674     1.49400
Zn1004     Zn  0.35436227  0.71556581  0.52024252     1.49100
Zn1005     Zn  0.40951896  0.72856765  0.97752468     1.49500
O1006       O  0.37267372  0.75577354  0.49915443    -1.81400
O1007       O  0.33737231  0.81752057  0.98122336    -0.72000
O1008       O  0.37957315  0.77373537  0.56977780    -0.71800
O1009       O  0.30634106  0.71642183  0.51646368    -0.71300
O1010       O  0.36705158  0.83765743  0.52182502    -0.72000
O1011       O  0.30281821  0.75239346  0.98500542    -0.71600
O1012       O  0.35940760  0.72122488  0.56434082    -0.72200
O1013       O  0.41779517  0.67902641  0.98497694    -0.71600
O1014       O  0.43763829  0.78868048  0.52439660    -0.72300
O1015       O  0.37783289  0.67005145  0.51092914    -0.71700
O1016       O  0.44948480  0.74582807  0.99303547    -0.72200
O1017       O  0.40357350  0.73540958  0.93306976    -0.72100
O1018       O  0.35588822  0.75956872  0.92909018    -0.71900
C1019       C  0.34540668  0.84746704  0.50342627     0.79900
C1020       C  0.36851323  0.74575753  0.58082190     0.80400
C1021       C  0.28899592  0.74080002  0.50604711     0.79300
C1022       C  0.40370404  0.66569887  0.49667651     0.79700
C1023       C  0.45594562  0.77380748  0.50579170     0.80900
C1024       C  0.38069016  0.74680321  0.91714352     0.79900
C1025       C  0.24072740  0.77351393  0.51778539    -0.13700
C1026       C  0.25545978  0.74275615  0.51362780    -0.28800
H1027       H  0.25397180  0.79738247  0.51984702     0.15400
H1028       H  0.24450596  0.70843955  0.00951140     0.15900
C1029       C  0.00440932  0.73925623  0.50696321    -0.13700
C1030       C  0.49003178  0.77162477  0.51126437    -0.28800
H1031       H  0.99236491  0.70689966  0.00972078     0.15400
H1032       H  0.50365740  0.79536819  0.51195131     0.15900
C1033       C  0.20243613  0.61781797  0.01090705    -0.13700
C1034       C  0.16975209  0.63030267  0.51339829    -0.28800
H1035       H  0.21528560  0.65199574  0.52050172     0.15400
H1036       H  0.15641564  0.59576172  0.00969449     0.15900
C1037       C  0.29647195  0.87297391  0.00546215    -0.13700
C1038       C  0.32859785  0.87109076  0.00419812    -0.28800
H1039       H  0.28253729  0.84961598  0.00814453     0.15400
H1040       H  0.34405013  0.90447061  0.50731346     0.15900
C1041       C  0.38402721  0.99532523  0.51260723    -0.13700
C1042       C  0.36824766  0.50931416  0.02043534    -0.28800
H1043       H  0.36789883  0.95810120  0.01489752     0.15400
H1044       H  0.38065536  0.54555250  0.51572226     0.15900
C1045       C  0.11699495  0.51926779  0.49605178    -0.13700
C1046       C  0.13386850  0.98046120  0.00247413    -0.28800
H1047       H  0.13013608  0.54319889  0.49829365     0.15400
H1048       H  0.12061006  0.95679642  0.00617317     0.15900
C1049       C  0.42090630  0.63241680  0.49851337    -0.13700
C1050       C  0.45301155  0.63081729  0.49987538    -0.28800
H1051       H  0.40685916  0.59804963  0.00325457     0.15400
H1052       H  0.46682644  0.65430735  0.50179140     0.15900
C1053       C  0.04505049  0.88193092  0.51046986    -0.13700
C1054       C  0.07709008  0.87970194  0.51217031    -0.28800
H1055       H  0.03185689  0.84933286  0.01191557     0.15400
H1056       H  0.09119396  0.90300780  0.51395302     0.15900
C1057       C  0.36478199  0.76124303  0.86474426    -0.13700
C1058       C  0.38341826  0.74387377  0.88419100    -0.28800
H1059       H  0.34733915  0.77934214  0.87310538     0.15400
H1060       H  0.40204030  0.72733267  0.87565266     0.15900
C1061       C  0.37976960  0.76247001  0.63271386    -0.13700
C1062       C  0.36566625  0.74114377  0.61348124    -0.28800
H1063       H  0.39427687  0.78356860  0.62428661     0.15400
H1064       H  0.35243528  0.71904725  0.62188090     0.15900
C1065       C  0.11336646  0.74993005  0.87326742    -0.13700
C1066       C  0.13742607  0.75138778  0.89262079    -0.28800
H1067       H  0.08930208  0.74751654  0.88154251     0.15400
H1068       H  0.16162924  0.75083428  0.88448661     0.15900
C1069       C  0.11880569  0.74403306  0.62370857    -0.13700
C1070       C  0.12066844  0.77046605  0.64279352    -0.28800
H1071       H  0.11622991  0.71788309  0.63245518     0.15400
H1072       H  0.12102938  0.79685237  0.63425924     0.15900
C1073       C  0.25625396  0.76522677  0.75120219    -0.13700
C1074       C  0.24013444  0.73637963  0.74348769    -0.28800
H1075       H  0.24456034  0.78554761  0.76360471     0.15400
H1076       H  0.25134011  0.71619970  0.73055837     0.15900
C1077       C  0.49182172  0.73508777  0.76000604    -0.13700
C1078       C  0.00599828  0.76324049  0.74756134    -0.28800
H1079       H  0.50300691  0.71664812  0.77523645     0.15400
H1080       H  0.99410302  0.78344320  0.73467701     0.15900
C1081       C  0.24207989  0.51737514  0.86403156    -0.13700
C1082       C  0.26224507  0.50104386  0.88280008    -0.28800
H1083       H  0.22490758  0.03502343  0.87020523     0.15400
H1084       H  0.28091247  0.48497523  0.87368995     0.15900
C1085       C  0.26435262  0.50408794  0.63378734    -0.13700
C1086       C  0.24479771  0.48743365  0.61506643    -0.28800
H1087       H  0.23898555  0.96484588  0.62259649     0.15400
H1088       H  0.22787989  0.46885723  0.62386079     0.15900
C1089       C  0.20369142  0.87786001  0.76937791    -0.13700
C1090       C  0.17334639  0.87386764  0.75962287    -0.28800
H1091       H  0.21498673  0.85783744  0.78291079     0.15400
H1092       H  0.16218369  0.89450780  0.74667689     0.15900
C1093       C  0.29899759  0.62567012  0.75160019    -0.13700
C1094       C  0.33092585  0.62775668  0.75480874    -0.28800
H1095       H  0.28485627  0.64908097  0.74987512     0.15400
H1096       H  0.34488558  0.60464797  0.75920685     0.15900
C1097       C  0.49243045  0.49410730  0.88686485    -0.13700
C1098       C  0.51122949  0.47651246  0.86822401    -0.28800
H1099       H  0.47466693  0.51160068  0.87762535     0.15400
H1100       H  0.03009379  0.95984467  0.87110992     0.15900
C1101       C  0.49012338  0.49797418  0.63668234    -0.13700
C1102       C  0.50737346  0.51729031  0.61767906    -0.28800
H1103       H  0.97451243  0.98473553  0.62177789     0.15400
H1104       H  0.52372835  0.53634499  0.62637679     0.15900
C1105       C  0.36983892  0.98224606  0.76070412    -0.13700
C1106       C  0.38447572  0.51058724  0.77257232    -0.28800
H1107       H  0.38281302  0.95806722  0.76268028     0.15400
H1108       H  0.37162236  0.53484110  0.77406092     0.15900
C1109       C  0.13518202  0.51582633  0.74004789    -0.13700
C1110       C  0.11962308  0.98483432  0.74150592    -0.28800
H1111       H  0.12150993  0.53952787  0.74170284     0.15400
H1112       H  0.13309234  0.96097612  0.74359776     0.15900
C1113       C  0.42534499  0.87193209  0.75406264    -0.13700
C1114       C  0.45745373  0.87213062  0.75238742    -0.28800
H1115       H  0.41227847  0.89602010  0.75572749     0.15400
H1116       H  0.47078743  0.84811515  0.75312385     0.15900
C1117       C  0.04851902  0.62022921  0.75602549    -0.13700
C1118       C  0.07712435  0.62748426  0.74351460    -0.28800
H1119       H  0.03870662  0.63755187  0.77254539     0.15400
H1120       H  0.08701638  0.61012872  0.72706204     0.15900
Zn1121     Zn  0.97011473  0.47781661  0.22071812     1.49700
Zn1122     Zn  0.52444816  0.02179602  0.21816601     1.49400
Zn1123     Zn  0.98188338  0.03366106  0.27759357     1.49100
Zn1124     Zn  0.52180922  0.45630014  0.27448786     1.49500
O1125       O  0.49804780  0.99758565  0.24707938    -1.81400
O1126       O  0.97967001  0.47875229  0.17687611    -0.72000
O1127       O  0.53352643  0.07090289  0.22849948    -0.71800
O1128       O  0.93312970  0.03565083  0.27723989    -0.71300
O1129       O  0.51186317  0.01445808  0.17484513    -0.72000
O1130       O  0.92995039  0.49997489  0.22762049    -0.71600
O1131       O  0.00690171  0.07964681  0.27225617    -0.72200
O1132       O  0.52009584  0.46413153  0.31916469    -0.71600
O1133       O  0.56724792  0.00505403  0.22367200    -0.72300
O1134       O  0.99247745  0.01626738  0.31928002    -0.71700
O1135       O  0.56932002  0.45667513  0.26500851    -0.72200
O1136       O  0.49674796  0.41032268  0.26786280    -0.72100
O1137       O  0.95810912  0.43098305  0.23425387    -0.71900
C1138       C  0.49073147  0.99512252  0.16343696     0.79900
C1139       C  0.52764051  0.08776122  0.25206688     0.80400
C1140       C  0.91345004  0.01817761  0.26176571     0.79300
C1141       C  0.00848391  0.49004382  0.32660699     0.79700
C1142       C  0.58527500  0.47964705  0.25085658     0.80900
C1143       C  0.97079964  0.40782351  0.25050628     0.79900
Zn1144     Zn  0.72148487  0.47242168  0.22397249     1.49700
Zn1145     Zn  0.72674258  0.04318769  0.26594961     1.49400
Zn1146     Zn  0.77285841  0.45852759  0.27285700     1.49100
Zn1147     Zn  0.78276973  0.02058558  0.22397682     1.49500
O1148       O  0.75296651  0.49511501  0.24803955    -1.81400
O1149       O  0.68073540  0.49206591  0.23229217    -0.72000
O1150       O  0.72837913  0.03874905  0.31140631    -0.71800
O1151       O  0.74857707  0.41167222  0.27102807    -0.71300
O1152       O  0.67966752  0.04093060  0.25466900    -0.72000
O1153       O  0.71222965  0.42506024  0.23704337    -0.71600
O1154       O  0.76987544  0.47190550  0.31585001    -0.72200
O1155       O  0.82210092  0.00350964  0.24049525    -0.71600
O1156       O  0.75009243  0.08943750  0.25633812    -0.72300
O1157       O  0.82066359  0.45854024  0.26538015    -0.71700
O1158       O  0.79053221  0.06998081  0.22992703    -0.72200
O1159       O  0.77900822  0.01233182  0.17967091    -0.72100
O1160       O  0.72914634  0.47298894  0.18000166    -0.71900
C1161       C  0.66497566  0.01872824  0.23887587     0.79900
C1162       C  0.75815737  0.49698456  0.33016575     0.80400
C1163       C  0.72335530  0.40436026  0.25648976     0.79300
C1164       C  0.83682861  0.47981575  0.24959111     0.79700
C1165       C  0.77673743  0.09422377  0.24338743     0.80900
C1166       C  0.75002688  0.48779111  0.16412233     0.79900
Zn1167     Zn  0.60638808  0.28756267  0.23347097     1.49700
Zn1168     Zn  0.59009037  0.22659062  0.28081271     1.49400
Zn1169     Zn  0.64011555  0.21302368  0.23071625     1.49100
Zn1170     Zn  0.65334948  0.26540954  0.28536065     1.49500
O1171       O  0.62267349  0.24808783  0.25694984    -1.81400
O1172       O  0.55784330  0.28758834  0.23498864    -0.72000
O1173       O  0.58432991  0.17641167  0.27418584    -0.71800
O1174       O  0.63342205  0.22687985  0.18706293    -0.71300
O1175       O  0.55034479  0.24182742  0.26463563    -0.72000
O1176       O  0.61520916  0.28055109  0.18987952    -0.71600
O1177       O  0.61615238  0.16640894  0.23574599    -0.72200
O1178       O  0.69429297  0.24274786  0.28020690    -0.71600
O1179       O  0.59142139  0.23793606  0.32435755    -0.72300
O1180       O  0.68820548  0.21509373  0.23693329    -0.71700
O1181       O  0.63844180  0.26301469  0.32810310    -0.72200
O1182       O  0.66647140  0.31352338  0.27541464    -0.72100
O1183       O  0.63062157  0.33242265  0.24265845    -0.71900
C1184       C  0.53994211  0.26449956  0.24659717     0.79900
C1185       C  0.59361800  0.15713231  0.25317820     0.80400
C1186       C  0.62452063  0.25506355  0.17460770     0.79300
C1187       C  0.70561153  0.22940344  0.25674297     0.79700
C1188       C  0.61287552  0.25210306  0.33988470     0.80900
C1189       C  0.65595468  0.33687395  0.25790119     0.79900
Zn1190     Zn  0.83958987  0.23603449  0.21857683     1.49700
Zn1191     Zn  0.90048868  0.27733497  0.21908039     1.49400
Zn1192     Zn  0.85528440  0.28722428  0.27382908     1.49100
Zn1193     Zn  0.89217554  0.21416753  0.26604683     1.49500
O1194       O  0.87180225  0.25343733  0.24540764    -1.81400
O1195       O  0.84872740  0.24314217  0.17439846    -0.72000
O1196       O  0.91278642  0.32230717  0.23427449    -0.71800
O1197       O  0.80670316  0.28417737  0.27145138    -0.71300
O1198       O  0.88733967  0.28166176  0.17651457    -0.72000
O1199       O  0.79842019  0.25479152  0.22941180    -0.71600
O1200       O  0.87799215  0.33534318  0.26940546    -0.72200
O1201       O  0.89168761  0.22162389  0.31108497    -0.71600
O1202       O  0.94138981  0.25573057  0.21961929    -0.72300
O1203       O  0.86584722  0.27125955  0.31603311    -0.71700
O1204       O  0.93909971  0.21447977  0.25474952    -0.72200
O1205       O  0.86730673  0.16873734  0.25853783    -0.72100
O1206       O  0.83012598  0.18689075  0.22677156    -0.71900
C1207       C  0.86796358  0.26378480  0.16159624     0.79900
C1208       C  0.90270743  0.34261505  0.25397982     0.80400
C1209       C  0.78836841  0.26858359  0.25317470     0.79300
C1210       C  0.88030367  0.24531035  0.32743303     0.79700
C1211       C  0.95465544  0.23398796  0.23681419     0.80900
C1212       C  0.84194109  0.16353985  0.24347966     0.79900
Zn1213     Zn  0.52802187  0.48330675  0.47607849     1.49700
Zn1214     Zn  0.98508587  0.46627811  0.02373934     1.49400
Zn1215     Zn  0.51886795  0.03527575  0.01715778     1.49100
Zn1216     Zn  0.96717622  0.02506872  0.47369047     1.49500
O1217       O  0.00043050  0.99755505  0.99801353    -1.81400
O1218       O  0.53550781  0.43444623  0.48650927    -0.72000
O1219       O  0.99541364  0.48253142  0.06564728    -0.71800
O1220       O  0.56640153  0.03435783  0.00806616    -0.71300
O1221       O  0.00765164  0.41867661  0.01976545    -0.72800
O1222       O  0.57027481  0.49955022  0.48506036    -0.71600
O1223       O  0.51621024  0.02788947  0.06182769    -0.72200
O1224       O  0.95929478  0.07458275  0.47917429    -0.71600
O1225       O  0.93632194  0.46682191  0.02054223    -0.72300
O1226       O  0.49471999  0.08135256  0.00945136    -0.71700
O1227       O  0.92681798  0.00878835  0.48847166    -0.72200
O1228       O  0.97278743  0.01659034  0.42989443    -0.72100
O1229       O  0.51801073  0.48865141  0.43186199    -0.71900
C1230       C  0.52807024  0.40284442  0.01044258     0.79900
C1231       C  0.00381652  0.00841473  0.07965242     0.80400
C1232       C  0.58217989  0.01250750  0.99289421     0.79300
C1233       C  0.97128521  0.08922860  0.99409089     0.79700
C1234       C  0.91833555  0.48257554  0.00171384     0.80900
C1235       C  0.99426320  0.00195859  0.41472651     0.79900
Zn1236     Zn  0.73509022  0.46611366  0.02481942     1.49700
Zn1237     Zn  0.76702064  0.03017887  0.02697954     1.49400
Zn1238     Zn  0.77909859  0.48743973  0.47084085     1.49100
Zn1239     Zn  0.72382729  0.03142722  0.47058142     1.49500
O1240       O  0.75141700  0.00634464  0.49818210    -1.81400
O1241       O  0.74438662  0.47895166  0.06791841    -0.72000
O1242       O  0.81541525  0.03095613  0.02342135    -0.71800
O1243       O  0.78787857  0.43795521  0.47974742    -0.71300
O1244       O  0.75902578  0.01157624  0.06862764    -0.72000
O1245       O  0.75823609  0.41947584  0.01799485    -0.71600
O1246       O  0.82079156  0.50399594  0.48138984    -0.72200
O1247       O  0.73462412  0.02636586  0.42641816    -0.71600
O1248       O  0.74321289  0.07760709  0.02505225    -0.72300
O1249       O  0.76903544  0.49621171  0.42672668    -0.71700
O1250       O  0.71481246  0.07982857  0.48276755    -0.72200
O1251       O  0.68167090  0.01402641  0.47678392    -0.72100
O1252       O  0.68660799  0.46471542  0.01996531    -0.71900
C1253       C  0.74523960  0.98501670  0.07944684     0.79900
C1254       C  0.83452089  0.02500085  0.50936990     0.80400
C1255       C  0.77930729  0.41734183  0.50042326     0.79300
C1256       C  0.75681866  0.00935570  0.41410564     0.79700
C1257       C  0.72152725  0.09687633  0.50602786     0.80900
C1258       C  0.66656408  0.48799577  0.50270124     0.79900
Zn1259     Zn  0.65574410  0.23509529  0.48234141     1.49700
Zn1260     Zn  0.60372572  0.20476173  0.03056533     1.49400
Zn1261     Zn  0.64033604  0.27907180  0.03527407     1.49100
Zn1262     Zn  0.59342074  0.27511552  0.47984570     1.49500
O1263       O  0.62287558  0.24362824  0.00822829    -1.81400
O1264       O  0.66454573  0.18605990  0.49070070    -0.72000
O1265       O  0.61013009  0.21216194  0.07479383    -0.71800
O1266       O  0.68922778  0.28105397  0.03076426    -0.71300
O1267       O  0.62702229  0.15829958  0.02300560    -0.72000
O1268       O  0.69571129  0.25237712  0.49339050    -0.71600
O1269       O  0.63297857  0.26368176  0.07832280    -0.72200
O1270       O  0.58219171  0.32368474  0.48921785    -0.71600
O1271       O  0.55550507  0.20627296  0.02354040    -0.72300
O1272       O  0.61617064  0.32563758  0.02951320    -0.71700
O1273       O  0.55287832  0.25485932  0.48841192    -0.72200
O1274       O  0.60412518  0.27031001  0.43585028    -0.72100
O1275       O  0.65066818  0.24391559  0.43889877    -0.71900
C1276       C  0.65239565  0.15278837  0.00824958     0.79900
C1277       C  0.62157087  0.23642668  0.09040324     0.80400
C1278       C  0.70640004  0.26184205  0.01428915     0.79300
C1279       C  0.59336066  0.33387707  0.01183130     0.79700
C1280       C  0.53907165  0.22627662  0.00654002     0.80900
C1281       C  0.62864945  0.25768641  0.42357988     0.79900
Zn1282     Zn  0.84252108  0.27980634  0.47180976     1.49700
Zn1283     Zn  0.88754973  0.28355712  0.02405216     1.49400
Zn1284     Zn  0.85535025  0.20762440  0.01915795     1.49100
Zn1285     Zn  0.90604866  0.24041778  0.46891213     1.49500
O1286       O  0.87191990  0.24794347  0.99684762    -1.81400
O1287       O  0.83577230  0.32888689  0.48066915    -0.72000
O1288       O  0.87523746  0.27031768  0.06612713    -0.71800
O1289       O  0.80745455  0.20590190  0.01475177    -0.71300
O1290       O  0.86693608  0.33187419  0.01647286    -0.72000
O1291       O  0.80170666  0.26410360  0.48530149    -0.71600
O1292       O  0.85904951  0.21587643  0.06321279    -0.72200
O1293       O  0.91687755  0.19110319  0.47650730    -0.71600
O1294       O  0.93583796  0.28128420  0.02355602    -0.72300
O1295       O  0.88045346  0.16262235  0.01077538    -0.71700
O1296       O  0.94707079  0.25955333  0.48055682    -0.72200
O1297       O  0.89497078  0.24739285  0.42454105    -0.72100
O1298       O  0.84827368  0.27357400  0.42754434    -0.71900
C1299       C  0.84345474  0.34000536  0.99961183     0.79900
C1300       C  0.86532336  0.24253166  0.07840123     0.80400
C1301       C  0.78918097  0.22895294  0.00351221     0.79300
C1302       C  0.90480103  0.15778634  0.99438212     0.79700
C1303       C  0.95462981  0.26502086  0.00634728     0.80900
C1304       C  0.87048517  0.26066986  0.41209350     0.79900
C1305       C  0.74093986  0.26039659  0.01656269    -0.13700
C1306       C  0.75570347  0.22992341  0.01123839    -0.28800
H1307       H  0.75422507  0.28411680  0.01947249     0.15400
H1308       H  0.74380177  0.21792587  0.50895321     0.15900
C1309       C  0.50456403  0.22793256  0.00885048    -0.13700
C1310       C  0.98834601  0.26238289  0.01335032    -0.28800
H1311       H  0.49301833  0.21432491  0.51305312     0.15400
H1312       H  0.00194658  0.28610237  0.01470334     0.15900
C1313       C  0.70423696  0.12976860  0.51069589    -0.13700
C1314       C  0.66972875  0.11970403  0.01072372    -0.28800
H1315       H  0.71480792  0.14244811  0.01816212     0.15400
H1316       H  0.65849612  0.10739390  0.51400800     0.15900
C1317       C  0.79636135  0.38390943  0.50318658    -0.13700
C1318       C  0.82852578  0.38214421  0.50415829    -0.28800
H1319       H  0.78247077  0.36033958  0.50359915     0.15400
H1320       H  0.84238308  0.39717456  0.00275609     0.15900
C1321       C  0.88414277  0.48517166  0.00609978    -0.13700
C1322       C  0.86848139  0.02378752  0.51568365    -0.28800
H1323       H  0.86741388  0.46874489  0.50988514     0.15400
H1324       H  0.88116055  0.03615642  0.01230154     0.15900
C1325       C  0.61667161  0.01084299  0.99492994    -0.13700
C1326       C  0.63227085  0.48919478  0.50684142    -0.28800
H1327       H  0.62979750  0.03479532  0.99706236     0.15400
H1328       H  0.61920712  0.46526420  0.50975159     0.15900
C1329       C  0.92226991  0.12450395  0.99556583    -0.13700
C1330       C  0.95443133  0.12291544  0.99501589    -0.28800
H1331       H  0.90945654  0.11026079  0.49611451     0.15400
H1332       H  0.96827990  0.14647829  0.99579296     0.15900
C1333       C  0.54449380  0.36924312  0.01426238    -0.13700
C1334       C  0.57658328  0.36731995  0.01454798    -0.28800
H1335       H  0.53047685  0.35794290  0.51493408     0.15400
H1336       H  0.59058981  0.39076444  0.01562076     0.15900
C1337       C  0.88432958  0.24263994  0.36038534    -0.13700
C1338       C  0.86725122  0.26217831  0.37910605    -0.28800
H1339       H  0.90111490  0.22390288  0.36939184     0.15400
H1340       H  0.84933083  0.27952677  0.36994806     0.15900
C1341       C  0.86912067  0.26684379  0.12883391    -0.13700
C1342       C  0.86072602  0.24078602  0.11104235    -0.28800
H1343       H  0.87998908  0.28985723  0.11928146     0.15400
H1344       H  0.85130878  0.21709217  0.12075509     0.15900
C1345       C  0.60788826  0.25544333  0.37227071    -0.13700
C1346       C  0.63243516  0.25863343  0.39100097    -0.28800
H1347       H  0.58407126  0.25261355  0.38105586     0.15400
H1348       H  0.65641840  0.25850478  0.38228673     0.15900
C1349       C  0.62188872  0.23213677  0.12331633    -0.13700
C1350       C  0.62500986  0.25904878  0.14172409    -0.28800
H1351       H  0.61838570  0.20638275  0.13263597     0.15400
H1352       H  0.62624505  0.28507353  0.13243964     0.15900
C1353       C  0.75489925  0.26287197  0.26075145    -0.13700
C1354       C  0.73949244  0.23440999  0.25087762    -0.28800
H1355       H  0.74334714  0.28080442  0.27572473     0.15400
H1356       H  0.75110157  0.21659748  0.23583406     0.15900
C1357       C  0.98919226  0.23491780  0.23824631    -0.13700
C1358       C  0.50647694  0.26194572  0.23826136    -0.28800
H1359       H  0.00112249  0.21330638  0.24921757     0.15400
H1360       H  0.49506016  0.28447880  0.22826309     0.15900
C1361       C  0.73840098  0.02208146  0.36197718    -0.13700
C1362       C  0.75815198  0.00576060  0.38118921    -0.28800
H1363       H  0.77649845  0.47611739  0.37286938     0.15400
H1364       H  0.77600464  0.98836989  0.37245731     0.15900
C1365       C  0.76168411  0.99832234  0.13103566    -0.13700
C1366       C  0.74297932  0.98057385  0.11230299    -0.28800
H1367       H  0.73188158  0.46485886  0.12260599     0.15400
H1368       H  0.72563840  0.96253954  0.12119783     0.15900
C1369       C  0.70521430  0.37223181  0.26280865    -0.13700
C1370       C  0.67453064  0.36904265  0.25387071    -0.28800
H1371       H  0.71670787  0.35152257  0.27537790     0.15400
H1372       H  0.66320884  0.39000027  0.24145673     0.15900
C1373       C  0.79303029  0.12806090  0.24409819    -0.13700
C1374       C  0.82513172  0.13006333  0.24536408    -0.28800
H1375       H  0.77878640  0.15144720  0.24396198     0.15400
H1376       H  0.83917420  0.10672292  0.24829982     0.15900
C1377       C  0.99124408  0.00349939  0.38177093    -0.13700
C1378       C  0.00948137  0.98543325  0.36296192    -0.28800
H1379       H  0.97303800  0.02050146  0.37261691     0.15400
H1380       H  0.52724910  0.46647799  0.37763881     0.15900
C1381       C  0.98511199  0.99754962  0.13127340    -0.13700
C1382       C  0.00497867  0.01371897  0.11233933    -0.28800
H1383       H  0.48097012  0.47006132  0.12860979     0.15400
H1384       H  0.02222640  0.03188358  0.12093837     0.15900
C1385       C  0.87107030  0.48272426  0.25339900    -0.13700
C1386       C  0.87974374  0.01704041  0.26909498    -0.28800
H1387       H  0.88522587  0.45927491  0.25414204     0.15400
H1388       H  0.86654900  0.04115529  0.26927042     0.15900
C1389       C  0.63046080  0.01649256  0.23938144    -0.13700
C1390       C  0.61976268  0.48093148  0.25323117    -0.28800
H1391       H  0.61662797  0.04011386  0.24073188     0.15400
H1392       H  0.63294019  0.45679361  0.25323627     0.15900
C1393       C  0.92086937  0.37496567  0.25799641    -0.13700
C1394       C  0.95292337  0.37529805  0.25499265    -0.28800
H1395       H  0.90795548  0.39886356  0.26133665     0.15400
H1396       H  0.96595803  0.35112676  0.25398376     0.15900
C1397       C  0.54617800  0.11946486  0.25831608    -0.13700
C1398       C  0.57588300  0.12465058  0.24753356    -0.28800
H1399       H  0.53586023  0.13808174  0.27345052     0.15400
H1400       H  0.58630725  0.10588381  0.23259916     0.15900
Zn1401     Zn  0.97019492  0.47614321  0.72031836     1.49700
Zn1402     Zn  0.53183136  0.01901955  0.71984170     1.49400
Zn1403     Zn  0.98621433  0.02912461  0.77797113     1.49100
Zn1404     Zn  0.52322370  0.45479200  0.77324620     1.49500
O1405       O  0.50359450  0.99463493  0.74704315    -1.81400
O1406       O  0.97869328  0.47635946  0.67623991    -0.72000
O1407       O  0.53918077  0.06750662  0.73147678    -0.71800
O1408       O  0.93763852  0.02954510  0.77615457    -0.71300
O1409       O  0.52075468  0.01462583  0.67556397    -0.72000
O1410       O  0.93037319  0.49845827  0.72736692    -0.71600
O1411       O  0.00987382  0.07630274  0.77531869    -0.72200
O1412       O  0.52070099  0.45889588  0.81835238    -0.71600
O1413       O  0.57485287  0.00276171  0.72782882    -0.72300
O1414       O  0.99603057  0.00987963  0.81905843    -0.71700
O1415       O  0.57044835  0.45805061  0.76426610    -0.72200
O1416       O  0.50107509  0.40829029  0.76367653    -0.72100
O1417       O  0.95874741  0.42936925  0.73455186    -0.71900
C1418       C  0.49850764  0.99797976  0.66289485     0.79900
C1419       C  0.53244614  0.08388154  0.75505876     0.80400
C1420       C  0.91921466  0.01303224  0.75868215     0.79300
C1421       C  0.01017406  0.48767959  0.82560703     0.79700
C1422       C  0.58580153  0.48109134  0.74968486     0.80900
C1423       C  0.97281833  0.40633954  0.74987974     0.79900
Zn1424     Zn  0.72158028  0.47340285  0.72383670     1.49700
Zn1425     Zn  0.73720210  0.03222316  0.77298935     1.49400
Zn1426     Zn  0.77317304  0.45739466  0.77167119     1.49100
Zn1427     Zn  0.78734960  0.01647925  0.72334797     1.49500
O1428       O  0.75328450  0.49522039  0.74832085    -1.81400
O1429       O  0.68128465  0.49372631  0.73255803    -0.72000
O1430       O  0.74587797  0.01960874  0.81697431    -0.71800
O1431       O  0.74910759  0.41037377  0.76778513    -0.71300
O1432       O  0.68866760  0.03129160  0.76658154    -0.72000
O1433       O  0.71188060  0.42521954  0.73515094    -0.71600
O1434       O  0.77024313  0.46858047  0.81522905    -0.72200
O1435       O  0.82747918  0.99917204  0.73688072    -0.71600
O1436       O  0.75979475  0.08004433  0.76557856    -0.72300
O1437       O  0.82092162  0.45820160  0.76394147    -0.71700
O1438       O  0.79517926  0.06526912  0.73158014    -0.72200
O1439       O  0.78125909  0.01187760  0.67926911    -0.72100
O1440       O  0.72924027  0.47577734  0.67996479    -0.71900
C1441       C  0.67190649  0.01411436  0.74801159     0.79900
C1442       C  0.75841681  0.49300570  0.83030609     0.80400
C1443       C  0.72370899  0.40344177  0.75331895     0.79300
C1444       C  0.83700080  0.47968344  0.74827975     0.79700
C1445       C  0.78386442  0.08725265  0.74925479     0.80900
C1446       C  0.74947282  0.49186987  0.66427324     0.79900
Zn1447     Zn  0.61087770  0.27910128  0.72860276     1.49700
Zn1448     Zn  0.59423601  0.22329815  0.78073635     1.49400
Zn1449     Zn  0.64615828  0.20518864  0.73361522     1.49100
Zn1450     Zn  0.65641020  0.26354714  0.78453918     1.49500
O1451       O  0.62711557  0.24294400  0.75615217    -1.81400
O1452       O  0.56199202  0.28048863  0.73131029    -0.72000
O1453       O  0.58757396  0.17346182  0.77526204    -0.71800
O1454       O  0.63984597  0.21304874  0.68915505    -0.71300
O1455       O  0.55462430  0.23905803  0.76536817    -0.72000
O1456       O  0.61859983  0.26541444  0.68557722    -0.71600
O1457       O  0.62315328  0.15883650  0.74125466    -0.72200
O1458       O  0.69844802  0.24331834  0.77956080    -0.71600
O1459       O  0.59566558  0.23486763  0.82394184    -0.72300
O1460       O  0.69396471  0.20798761  0.74059386    -0.71700
O1461       O  0.64210846  0.26096997  0.82797554    -0.72200
O1462       O  0.66739178  0.31210403  0.77302729    -0.72100
O1463       O  0.63600667  0.32467205  0.73433699    -0.71900
C1464       C  0.54392168  0.25989488  0.74593814     0.79900
C1465       C  0.59883046  0.15180113  0.75714330     0.80400
C1466       C  0.62919577  0.23813722  0.67347144     0.79300
C1467       C  0.71062667  0.22569082  0.75879329     0.79700
C1468       C  0.61669988  0.24937302  0.83964392     0.80900
C1469       C  0.65882357  0.33243649  0.75199839     0.79900
Zn1470     Zn  0.84563667  0.22992977  0.71970700     1.49700
Zn1471     Zn  0.90688960  0.27201455  0.72107917     1.49400
Zn1472     Zn  0.86072271  0.28199079  0.77501633     1.49100
Zn1473     Zn  0.89811529  0.20902912  0.76790655     1.49500
O1474       O  0.87763146  0.24794227  0.74678467    -1.81400
O1475       O  0.85374966  0.24000837  0.67520333    -0.72000
O1476       O  0.91778965  0.31780513  0.73568140    -0.71800
O1477       O  0.81232809  0.27947579  0.77244260    -0.71300
O1478       O  0.89431803  0.27601611  0.67843481    -0.72000
O1479       O  0.80431912  0.24701331  0.73213962    -0.71600
O1480       O  0.88268682  0.33042815  0.77059373    -0.72200
O1481       O  0.89588999  0.21620674  0.81279444    -0.71600
O1482       O  0.94833936  0.25158991  0.72301701    -0.72300
O1483       O  0.87043133  0.26612525  0.81733141    -0.71700
O1484       O  0.94569141  0.21089883  0.75860386    -0.72200
O1485       O  0.87381515  0.16314743  0.76024122    -0.72100
O1486       O  0.83692762  0.18007614  0.72759357    -0.71900
C1487       C  0.87381649  0.26031952  0.66300482     0.79900
C1488       C  0.90713949  0.33823310  0.75502642     0.80400
C1489       C  0.79412249  0.26262219  0.75497007     0.79300
C1490       C  0.88420977  0.23987890  0.82893611     0.79700
C1491       C  0.96149974  0.23084452  0.74120837     0.80900
C1492       C  0.84868670  0.15727668  0.74499008     0.79900
Zn1493     Zn  0.52854827  0.47044874  0.97676725     1.49700
Zn1494     Zn  0.98186808  0.47071429  0.52184595     1.49400
Zn1495     Zn  0.52152657  0.04741038  0.51695244     1.49100
Zn1496     Zn  0.96747443  0.01613287  0.97249931     1.49500
O1497       O  0.00095859  0.00716166  0.49851508    -1.81400
O1498       O  0.53612323  0.42155762  0.98827743    -0.72000
O1499       O  0.99183823  0.48527038  0.56427374    -0.71800
O1500       O  0.56882155  0.04680810  0.50706733    -0.71300
O1501       O  0.00436476  0.42323260  0.51619524    -0.72800
O1502       O  0.57101914  0.48733079  0.98450925    -0.71600
O1503       O  0.51979234  0.03944564  0.56197571    -0.72200
O1504       O  0.95857947  0.06540196  0.97918556    -0.71600
O1505       O  0.93313134  0.47127628  0.51889120    -0.72300
O1506       O  0.49762628  0.09372736  0.50835755    -0.71700
O1507       O  0.92691311  0.99850798  0.98522489    -0.72200
O1508       O  0.97479115  0.00891648  0.92872798    -0.72100
O1509       O  0.51766234  0.47600479  0.93253938    -0.71900
C1510       C  0.52711126  0.41473642  0.50784536     0.79900
C1511       C  0.00773069  0.01740824  0.57978929     0.80400
C1512       C  0.58442081  0.02518128  0.49151738     0.79300
C1513       C  0.97205403  0.09857591  0.49382630     0.79700
C1514       C  0.91529062  0.48931534  0.50155310     0.80900
C1515       C  0.99625493  0.99376840  0.91392392     0.79900
Zn1516     Zn  0.73334527  0.47191377  0.52509433     1.49700
Zn1517     Zn  0.76675824  0.03922574  0.52807501     1.49400
Zn1518     Zn  0.78097512  0.48143467  0.97054525     1.49100
Zn1519     Zn  0.72046048  0.02217663  0.97281640     1.49500
O1520       O  0.75016919  0.99709784  0.99773041    -1.81400
O1521       O  0.74297546  0.48477770  0.56810111    -0.72000
O1522       O  0.81535601  0.04120306  0.52629281    -0.71800
O1523       O  0.78844331  0.43155716  0.97864544    -0.71300
O1524       O  0.75773780  0.01985526  0.56923215    -0.72000
O1525       O  0.75711788  0.42528580  0.51857552    -0.71600
O1526       O  0.82325951  0.49698482  0.98096187    -0.72200
O1527       O  0.73037568  0.02453489  0.92932775    -0.71600
O1528       O  0.74217970  0.08594886  0.52498494    -0.72300
O1529       O  0.77041017  0.49077840  0.92668420    -0.71700
O1530       O  0.71038186  0.06814741  0.98725642    -0.72200
O1531       O  0.67917414  0.00277765  0.97789130    -0.72100
O1532       O  0.68467725  0.47161047  0.52102901    -0.71900
C1533       C  0.74387588  0.99293174  0.57925737     0.79900
C1534       C  0.83359519  0.01431679  0.00586404     0.80400
C1535       C  0.77969846  0.41100767  0.99930419     0.79300
C1536       C  0.75156340  0.00998175  0.91390298     0.79700
C1537       C  0.71969716  0.08669767  0.00856786     0.80900
C1538       C  0.66867301  0.48138863  0.00171345     0.79900
Zn1539     Zn  0.65503279  0.22453599  0.98318118     1.49700
Zn1540     Zn  0.60747287  0.21900695  0.53347523     1.49400
Zn1541     Zn  0.64271130  0.29496339  0.53008288     1.49100
Zn1542     Zn  0.59337071  0.26532172  0.98039070     1.49500
O1543       O  0.62454497  0.25604147  0.50741252    -1.81400
O1544       O  0.66408277  0.17570355  0.99124669    -0.72000
O1545       O  0.61534273  0.23240782  0.57693317    -0.71800
O1546       O  0.69141580  0.29610867  0.52473155    -0.71300
O1547       O  0.63166646  0.17190164  0.52740538    -0.72000
O1548       O  0.69459541  0.24180990  0.99535718    -0.71600
O1549       O  0.63591846  0.28528692  0.57394824    -0.72200
O1550       O  0.58407712  0.31370513  0.99147290    -0.71600
O1551       O  0.55852538  0.21892769  0.52756400    -0.72300
O1552       O  0.61848069  0.34090875  0.52178197    -0.71700
O1553       O  0.55151644  0.24686519  0.98780018    -0.72200
O1554       O  0.60535844  0.26227114  0.93622849    -0.72100
O1555       O  0.65121024  0.23457494  0.93966495    -0.71900
C1556       C  0.65488895  0.16459284  0.51015079     0.79900
C1557       C  0.62589523  0.25966856  0.58926989     0.80400
C1558       C  0.70807214  0.27448461  0.51014492     0.79300
C1559       C  0.59329142  0.34644307  0.50644570     0.79700
C1560       C  0.54125833  0.23626813  0.50906357     0.80900
C1561       C  0.63003267  0.24962312  0.92415579     0.79900
Zn1562     Zn  0.83968272  0.26953957  0.97242506     1.49700
Zn1563     Zn  0.88989241  0.29115069  0.52493490     1.49400
Zn1564     Zn  0.85605975  0.21641667  0.51728729     1.49100
Zn1565     Zn  0.90444385  0.23101432  0.97020537     1.49500
O1566       O  0.87398341  0.25704206  0.49633734    -1.81400
O1567       O  0.83223142  0.31878546  0.98108508    -0.72000
O1568       O  0.87899870  0.27523007  0.56727722    -0.71800
O1569       O  0.80816659  0.21586195  0.51219080    -0.71300
O1570       O  0.86748083  0.33930382  0.51922661    -0.72000
O1571       O  0.79903774  0.25257070  0.98613823    -0.71600
O1572       O  0.85952591  0.22245251  0.56161111    -0.72200
O1573       O  0.91496736  0.18134910  0.97701312    -0.71600
O1574       O  0.93857912  0.28944385  0.52236355    -0.72300
O1575       O  0.88064007  0.17146318  0.50821444    -0.71700
O1576       O  0.94521570  0.24917093  0.98329409    -0.72200
O1577       O  0.89470846  0.23984157  0.92606905    -0.72100
O1578       O  0.84702204  0.26419017  0.92816216    -0.71900
C1579       C  0.84521670  0.34856846  0.50123973     0.79900
C1580       C  0.86768648  0.24728576  0.57821568     0.80400
C1581       C  0.79079099  0.24009178  0.50156829     0.79300
C1582       C  0.90581476  0.16710989  0.49288366     0.79700
C1583       C  0.95706280  0.27450465  0.50388230     0.80900
C1584       C  0.87029892  0.25272073  0.91319214     0.79900
C1585       C  0.74259536  0.27281768  0.51219645    -0.13700
C1586       C  0.75715791  0.24188216  0.50850274    -0.28800
H1587       H  0.75604861  0.29656759  0.51413811     0.15400
H1588       H  0.74250700  0.20587917  0.01058490     0.15900
C1589       C  0.50665280  0.23803161  0.51173436    -0.13700
C1590       C  0.99113962  0.27191205  0.50976512    -0.28800
H1591       H  0.49112740  0.20404388  0.00878167     0.15400
H1592       H  0.00503570  0.29547761  0.50989330     0.15900
C1593       C  0.70176897  0.11892140  0.01365847    -0.13700
C1594       C  0.67209651  0.13109452  0.51232743    -0.28800
H1595       H  0.71790409  0.15347957  0.51114603     0.15400
H1596       H  0.65646557  0.09586164  0.00857099     0.15900
C1597       C  0.79571689  0.37701345  0.00154249    -0.13700
C1598       C  0.82776805  0.37419222  0.00153179    -0.28800
H1599       H  0.78115651  0.35397684  0.00305136     0.15400
H1600       H  0.84244779  0.40553656  0.50622109     0.15900
C1601       C  0.88119523  0.49207272  0.50630283    -0.13700
C1602       C  0.86771050  0.01230682  0.01132052    -0.28800
H1603       H  0.87043806  0.46188197  0.01014616     0.15400
H1604       H  0.88180313  0.04775535  0.51516800     0.15900
C1605       C  0.61887317  0.02352559  0.49310661    -0.13700
C1606       C  0.63424330  0.48103099  0.00467021    -0.28800
H1607       H  0.63223978  0.04734202  0.49502034     0.15400
H1608       H  0.62208267  0.45676707  0.00886792     0.15900
C1609       C  0.92319352  0.13386547  0.49420994    -0.13700
C1610       C  0.95533581  0.13228231  0.49424018    -0.28800
H1611       H  0.90860101  0.10088149  0.99771104     0.15400
H1612       H  0.96921279  0.15581515  0.49525946     0.15900
C1613       C  0.54407381  0.38131122  0.51098157    -0.13700
C1614       C  0.57607658  0.37973086  0.50830603    -0.28800
H1615       H  0.53038038  0.34586514  0.01544808     0.15400
H1616       H  0.58976915  0.40340727  0.50700231     0.15900
C1617       C  0.88689427  0.23668690  0.86190482    -0.13700
C1618       C  0.86852612  0.25532399  0.88020542    -0.28800
H1619       H  0.90352026  0.21799740  0.87125955     0.15400
H1620       H  0.85069383  0.27251419  0.87067117     0.15900
C1621       C  0.87456494  0.26607418  0.63035172    -0.13700
C1622       C  0.86360338  0.24292911  0.61088051    -0.28800
H1623       H  0.88706505  0.28874662  0.62210309     0.15400
H1624       H  0.85245522  0.21942684  0.61913703     0.15900
C1625       C  0.61109297  0.25207670  0.87203902    -0.13700
C1626       C  0.63507082  0.25209324  0.89163642    -0.28800
H1627       H  0.58688571  0.25056886  0.88007980     0.15400
H1628       H  0.65924850  0.25045375  0.88354009     0.15900
C1629       C  0.62632720  0.26251124  0.62219468    -0.13700
C1630       C  0.62867271  0.23487229  0.64052085    -0.28800
H1631       H  0.62616706  0.28826647  0.63157749     0.15400
H1632       H  0.63109166  0.20926077  0.63111721     0.15900
C1633       C  0.76052714  0.25804167  0.76239931    -0.13700
C1634       C  0.74480593  0.22924448  0.75384670    -0.28800
H1635       H  0.74899423  0.27747779  0.77591629     0.15400
H1636       H  0.75652670  0.20986264  0.74040261     0.15900
C1637       C  0.99593489  0.23356653  0.74435695    -0.13700
C1638       C  0.50986017  0.25750668  0.73955000    -0.28800
H1639       H  0.00823839  0.21314920  0.75663141     0.15400
H1640       H  0.49897288  0.27710069  0.72523209     0.15900
C1641       C  0.76229860  0.99113258  0.86252923    -0.13700
C1642       C  0.74985092  0.01435763  0.88107851    -0.28800
H1643       H  0.77646266  0.47052669  0.87256516     0.15400
H1644       H  0.73578422  0.03559839  0.87204730     0.15900
C1645       C  0.76128506  0.00290864  0.63087763    -0.13700
C1646       C  0.74162466  0.98706424  0.61185048    -0.28800
H1647       H  0.73165582  0.46932078  0.62253185     0.15400
H1648       H  0.72416727  0.96884375  0.62023812     0.15900
C1649       C  0.70636545  0.37037506  0.75840315    -0.13700
C1650       C  0.67672170  0.36511195  0.74724554    -0.28800
H1651       H  0.71755882  0.35060162  0.77229722     0.15400
H1652       H  0.66577424  0.38473687  0.73301965     0.15900
C1653       C  0.80013770  0.12123341  0.75052532    -0.13700
C1654       C  0.83212986  0.12359160  0.74750658    -0.28800
H1655       H  0.78604549  0.14437417  0.75373081     0.15400
H1656       H  0.84641673  0.10024701  0.74708539     0.15900
C1657       C  0.99415593  0.99587283  0.88094848    -0.13700
C1658       C  0.01295417  0.97828928  0.86226173    -0.28800
H1659       H  0.97620587  0.01310633  0.87166432     0.15400
H1660       H  0.52805950  0.45774066  0.87709799     0.15900
C1661       C  0.99184835  0.00237100  0.63105403    -0.13700
C1662       C  0.01001749  0.02128349  0.61253861    -0.28800
H1663       H  0.47267395  0.48020000  0.62781210     0.15400
H1664       H  0.02650008  0.04004855  0.62148500     0.15900
C1665       C  0.87127282  0.48230199  0.75183180    -0.13700
C1666       C  0.88545110  0.00972232  0.76457142    -0.28800
H1667       H  0.88526867  0.45871741  0.75210876     0.15400
H1668       H  0.87139213  0.03298167  0.76738423     0.15900
C1669       C  0.63735632  0.01253361  0.75036648    -0.13700
C1670       C  0.62023858  0.48291447  0.75207177    -0.28800
H1671       H  0.62400399  0.03603324  0.75434660     0.15400
H1672       H  0.63352850  0.45884740  0.75186073     0.15900
C1673       C  0.92418978  0.37142220  0.75838217    -0.13700
C1674       C  0.95612010  0.37312608  0.75474357    -0.28800
H1675       H  0.91048947  0.39478848  0.76183065     0.15400
H1676       H  0.96997324  0.34950933  0.75362159     0.15900
C1677       C  0.55090482  0.11522384  0.76195787    -0.13700
C1678       C  0.58125756  0.11919319  0.75259765    -0.28800
H1679       H  0.53988248  0.13465506  0.77583639     0.15400
H1680       H  0.59229544  0.09935031  0.73915220     0.15900
Zn1681     Zn  0.96141483  0.98161130  0.22504532     1.49700
Zn1682     Zn  0.53009182  0.51969109  0.22578926     1.49400
Zn1683     Zn  0.98528944  0.53125119  0.27250717     1.49100
Zn1684     Zn  0.52069028  0.95940360  0.26780946     1.49500
O1685       O  0.50192346  0.49601598  0.25342294    -1.81400
O1686       O  0.96608001  0.98697385  0.18025440    -0.72000
O1687       O  0.53727326  0.56910274  0.23550871    -0.71800
O1688       O  0.93689978  0.53189826  0.26833144    -0.71300
O1689       O  0.52019026  0.51237643  0.18157735    -0.72000
O1690       O  0.92191902  0.99970492  0.24002636    -0.71600
O1691       O  0.00918291  0.57764179  0.26860653    -0.72200
O1692       O  0.52090220  0.96794496  0.31226775    -0.71600
O1693       O  0.57233874  0.50302552  0.23499099    -0.72300
O1694       O  0.99357152  0.51533632  0.31471747    -0.71700
O1695       O  0.56739169  0.96050663  0.25573000    -0.72200
O1696       O  0.49704112  0.91265698  0.26380691    -0.72100
O1697       O  0.95348376  0.93260528  0.23379796    -0.71900
C1698       C  0.49870695  0.49402940  0.16953901     0.79900
C1699       C  0.52949784  0.58721426  0.25782955     0.80400
C1700       C  0.91910138  0.51653656  0.24954977     0.79300
C1701       C  0.00607848  0.98946019  0.33008401     0.79700
C1702       C  0.58178112  0.98273514  0.23938795     0.80900
C1703       C  0.96760885  0.90858644  0.24786482     0.79900
Zn1704     Zn  0.72166811  0.97841732  0.21951631     1.49700
Zn1705     Zn  0.73527953  0.53262452  0.27252854     1.49400
Zn1706     Zn  0.76254534  0.96968559  0.27862469     1.49100
Zn1707     Zn  0.78207734  0.51546198  0.21950405     1.49500
O1708       O  0.74825461  0.00308473  0.24778251    -1.81400
O1709       O  0.67917549  0.99616679  0.22369831    -0.72000
O1710       O  0.74405831  0.52199703  0.31677749    -0.71800
O1711       O  0.73732526  0.92338905  0.27512828    -0.71300
O1712       O  0.68670312  0.53202316  0.26740947    -0.72000
O1713       O  0.71251649  0.92983567  0.23147787    -0.71600
O1714       O  0.75322650  0.98885890  0.31965261    -0.72200
O1715       O  0.82423385  0.50042689  0.23084934    -0.71600
O1716       O  0.75772986  0.57960557  0.26292797    -0.72300
O1717       O  0.81132686  0.96713931  0.27815691    -0.71700
O1718       O  0.78901609  0.56547163  0.22513657    -0.72200
O1719       O  0.77213796  0.50541920  0.17594362    -0.72100
O1720       O  0.73473546  0.98204624  0.17599944    -0.71900
C1721       C  0.66933405  0.51274575  0.25109191     0.79900
C1722       C  0.74005529  0.01618539  0.32928449     0.80400
C1723       C  0.71781176  0.91254847  0.25529266     0.79300
C1724       C  0.83082240  0.98491691  0.26249381     0.79700
C1725       C  0.77959248  0.58716354  0.24415265     0.80900
C1726       C  0.75833602  0.99703544  0.16393229     0.79900
Zn1727     Zn  0.60902455  0.78565257  0.22292520     1.49700
Zn1728     Zn  0.58886047  0.73200908  0.27627638     1.49400
Zn1729     Zn  0.64174527  0.71081063  0.23164986     1.49100
Zn1730     Zn  0.65194647  0.77093559  0.28076636     1.49500
O1731       O  0.62307534  0.75012707  0.25227052    -1.81400
O1732       O  0.55990570  0.78540538  0.22168381    -0.72000
O1733       O  0.58147945  0.68155188  0.27275918    -0.71800
O1734       O  0.63762558  0.71743325  0.18699343    -0.71300
O1735       O  0.55049606  0.74714023  0.25807810    -0.72000
O1736       O  0.62097635  0.77148092  0.18075979    -0.71600
O1737       O  0.61778785  0.66521749  0.24013093    -0.72200
O1738       O  0.69428141  0.75150264  0.27518921    -0.71600
O1739       O  0.58910786  0.74545770  0.31922625    -0.72300
O1740       O  0.68928622  0.71200079  0.23949006    -0.71700
O1741       O  0.63737418  0.76728162  0.32383116    -0.72200
O1742       O  0.66195272  0.82004156  0.27049299    -0.72100
O1743       O  0.63281158  0.83205597  0.23014908    -0.71900
C1744       C  0.54109895  0.76570905  0.23642527     0.79900
C1745       C  0.59319296  0.65885281  0.25584302     0.80400
C1746       C  0.63038093  0.74289579  0.17007962     0.79300
C1747       C  0.70621129  0.73124626  0.25617389     0.79700
C1748       C  0.61108059  0.75787566  0.33519411     0.80900
C1749       C  0.65427267  0.84033540  0.24913870     0.79900
Zn1750     Zn  0.84113007  0.72999483  0.21466830     1.49700
Zn1751     Zn  0.90354953  0.77132702  0.21507012     1.49400
Zn1752     Zn  0.85755799  0.78281242  0.26894717     1.49100
Zn1753     Zn  0.89343812  0.70909808  0.26300173     1.49500
O1754       O  0.87380371  0.74806797  0.24106622    -1.81400
O1755       O  0.84921874  0.73840660  0.16990937    -0.72000
O1756       O  0.91368759  0.81858048  0.22781972    -0.71800
O1757       O  0.80937483  0.78170922  0.26682499    -0.71300
O1758       O  0.89211452  0.77130923  0.17177319    -0.72000
O1759       O  0.80008743  0.74801166  0.22754116    -0.71600
O1760       O  0.87931247  0.83061674  0.26358716    -0.72200
O1761       O  0.89148025  0.71727504  0.30772837    -0.71600
O1762       O  0.94512690  0.75166845  0.22012495    -0.72300
O1763       O  0.86775812  0.76826038  0.31146131    -0.71700
O1764       O  0.94089323  0.70967210  0.25442720    -0.72200
O1765       O  0.86915310  0.66324658  0.25560848    -0.72100
O1766       O  0.83235529  0.68024275  0.22292723    -0.71900
C1767       C  0.87065708  0.75623640  0.15693326     0.79900
C1768       C  0.90314817  0.83882458  0.24743585     0.80400
C1769       C  0.79056183  0.76487961  0.24998159     0.79300
C1770       C  0.88096409  0.74191582  0.32347173     0.79700
C1771       C  0.95742013  0.73011303  0.23817155     0.80900
C1772       C  0.84413796  0.65736112  0.24022162     0.79900
Zn1773     Zn  0.52926922  0.98505243  0.46907747     1.49700
Zn1774     Zn  0.98368252  0.96350322  0.02716700     1.49400
Zn1775     Zn  0.52035261  0.53447374  0.02233942     1.49100
Zn1776     Zn  0.96648816  0.52489192  0.46842245     1.49500
O1777       O  0.00196393  0.49966075  0.99444931    -1.81400
O1778       O  0.53759883  0.93667074  0.48079657    -0.72000
O1779       O  0.99092989  0.98136074  0.06915638    -0.71800
O1780       O  0.56743448  0.53435316  0.01254178    -0.71300
O1781       O  0.00793476  0.91638282  0.02424662    -0.72800
O1782       O  0.57117341  0.00277996  0.47544471    -0.71600
O1783       O  0.51951499  0.52854793  0.06720934    -0.72200
O1784       O  0.95819923  0.57356489  0.47571603    -0.71600
O1785       O  0.93503967  0.96185915  0.02335978    -0.72300
O1786       O  0.49622863  0.58027285  0.01351562    -0.71700
O1787       O  0.92604923  0.50746462  0.48025904    -0.72200
O1788       O  0.97302741  0.51920982  0.42476459    -0.72100
O1789       O  0.51790364  0.98910461  0.42509934    -0.71900
C1790       C  0.52665060  0.90592408  0.00148792     0.79900
C1791       C  0.01022559  0.50834755  0.07623807     0.80400
C1792       C  0.58366585  0.51135560  0.99924303     0.79300
C1793       C  0.97214879  0.58991153  0.99399844     0.79700
C1794       C  0.91666759  0.97970331  0.00637850     0.80900
C1795       C  0.99472228  0.50466534  0.40997475     0.79900
Zn1796     Zn  0.73035761  0.95672379  0.01756871     1.49700
Zn1797     Zn  0.77173170  0.54050408  0.02051263     1.49400
Zn1798     Zn  0.78527140  0.98855934  0.47411594     1.49100
Zn1799     Zn  0.71686404  0.52865462  0.47350877     1.49500
O1800       O  0.74958350  0.50836861  0.49828150    -1.81400
O1801       O  0.73290649  0.96233106  0.06264550    -0.72000
O1802       O  0.81933219  0.54075871  0.01267671    -0.71800
O1803       O  0.79462793  0.93963903  0.48296504    -0.71300
O1804       O  0.76971032  0.52913554  0.06421072    -0.72000
O1805       O  0.75532750  0.91159253  0.00839829    -0.71600
O1806       O  0.82530943  0.00748594  0.48725171    -0.72200
O1807       O  0.72591752  0.52884958  0.42941717    -0.71600
O1808       O  0.74728626  0.58705426  0.01605715    -0.72300
O1809       O  0.77793570  0.99397300  0.42969930    -0.71700
O1810       O  0.70473003  0.57550725  0.48617190    -0.72200
O1811       O  0.67707542  0.50620088  0.48125640    -0.72100
O1812       O  0.68258644  0.95672564  0.00804605    -0.71900
C1813       C  0.75853960  0.50444411  0.07983833     0.79900
C1814       C  0.83289680  0.52571414  0.49893462     0.80400
C1815       C  0.78081101  0.91538247  0.49682133     0.79300
C1816       C  0.74710633  0.51392923  0.41413470     0.79700
C1817       C  0.71704652  0.59806297  0.50276707     0.80900
C1818       C  0.66800990  0.99059610  0.49176971     0.79900
Zn1819     Zn  0.65276574  0.73538258  0.47816869     1.49700
Zn1820     Zn  0.60911124  0.71447716  0.03360130     1.49400
Zn1821     Zn  0.64406163  0.78888977  0.02241693     1.49100
Zn1822     Zn  0.59081989  0.77557885  0.47600617     1.49500
O1823       O  0.62305812  0.74900201  0.00362921    -1.81400
O1824       O  0.65970908  0.68619041  0.48610308    -0.72000
O1825       O  0.62069873  0.73126973  0.07492872    -0.71800
O1826       O  0.69182439  0.78768787  0.01218010    -0.71300
O1827       O  0.63272623  0.66773699  0.02803896    -0.72000
O1828       O  0.69342873  0.75115568  0.48912173    -0.71600
O1829       O  0.64114479  0.78358935  0.06758294    -0.72200
O1830       O  0.58140910  0.82456947  0.48464593    -0.71600
O1831       O  0.56014951  0.71290060  0.03392665    -0.72300
O1832       O  0.61986806  0.83448513  0.01297032    -0.71700
O1833       O  0.54976199  0.75683322  0.48632541    -0.72200
O1834       O  0.60101998  0.77014866  0.43172132    -0.72100
O1835       O  0.64796779  0.74470606  0.43481677    -0.71900
C1836       C  0.65322073  0.65889537  0.00850241     0.79900
C1837       C  0.63198574  0.75935084  0.08500945     0.80400
C1838       C  0.70665863  0.76615338  0.99581840     0.79300
C1839       C  0.59305109  0.83876752  0.00001978     0.79700
C1840       C  0.54046133  0.73000974  0.01771327     0.80900
C1841       C  0.62584249  0.75815836  0.41944258     0.79900
Zn1842     Zn  0.84156009  0.77732751  0.46694061     1.49700
Zn1843     Zn  0.88887607  0.78085190  0.01895680     1.49400
Zn1844     Zn  0.85333145  0.70679767  0.01187853     1.49100
Zn1845     Zn  0.90495469  0.73748774  0.46453233     1.49500
O1846       O  0.87350603  0.74617139  0.99077568    -1.81400
O1847       O  0.83560031  0.82627042  0.47645659    -0.72000
O1848       O  0.87640721  0.76642483  0.06107795    -0.71800
O1849       O  0.80585275  0.70719125  0.00274371    -0.71300
O1850       O  0.86675003  0.82835308  0.01120063    -0.72000
O1851       O  0.80014492  0.76191391  0.47962921    -0.71600
O1852       O  0.85417605  0.71481424  0.05640347    -0.72200
O1853       O  0.91541924  0.68843740  0.47260533    -0.71600
O1854       O  0.93777168  0.77975210  0.01869133    -0.72300
O1855       O  0.87808026  0.66090224  0.00585510    -0.71700
O1856       O  0.94598442  0.75639999  0.47616576    -0.72200
O1857       O  0.89438418  0.74464793  0.42030662    -0.72100
O1858       O  0.84819268  0.77202291  0.42272805    -0.71900
C1859       C  0.84580617  0.83762981  0.99187814     0.79900
C1860       C  0.86333540  0.73972947  0.07253051     0.80400
C1861       C  0.78971419  0.73024345  0.98875055     0.79300
C1862       C  0.90478370  0.65643127  0.99301607     0.79700
C1863       C  0.95710697  0.76382303  0.00169290     0.80900
C1864       C  0.87043881  0.75870979  0.40758905     0.79900
C1865       C  0.74127637  0.76402179  0.99551479    -0.13700
C1866       C  0.75549009  0.73276522  0.99275104    -0.28800
H1867       H  0.75512698  0.78750750  0.99738068     0.15400
H1868       H  0.74178863  0.71644561  0.50338711     0.15900
C1869       C  0.50659096  0.73137208  0.02450612    -0.13700
C1870       C  0.99100845  0.76185246  0.00871778    -0.28800
H1871       H  0.49093393  0.71664704  0.51285089     0.15400
H1872       H  0.00431539  0.78570232  0.01061955     0.15900
C1873       C  0.69955196  0.63086387  0.50657077    -0.13700
C1874       C  0.67089582  0.62600302  0.01118106    -0.28800
H1875       H  0.71614265  0.64927498  0.00750806     0.15400
H1876       H  0.65386401  0.60837238  0.51090579     0.15900
C1877       C  0.79706703  0.88154099  0.49839563    -0.13700
C1878       C  0.82904780  0.87904083  0.50075942    -0.28800
H1879       H  0.78277292  0.85831892  0.49704631     0.15400
H1880       H  0.84318573  0.89451220  0.99688790     0.15900
C1881       C  0.88248752  0.98121356  0.01145038    -0.13700
C1882       C  0.86707461  0.52339158  0.50325197    -0.28800
H1883       H  0.87002508  0.96890964  0.51875290     0.15400
H1884       H  0.88384560  0.53984085  0.00056986     0.15900
C1885       C  0.61812481  0.51110296  0.00139881    -0.13700
C1886       C  0.63356398  0.99241108  0.49284241    -0.28800
H1887       H  0.63055223  0.53561635  0.99997840     0.15400
H1888       H  0.62013868  0.96852474  0.49394021     0.15900
C1889       C  0.92245421  0.62358614  0.99597670    -0.13700
C1890       C  0.95463342  0.62286612  0.99617259    -0.28800
H1891       H  0.90764086  0.60761977  0.49086909     0.15400
H1892       H  0.96803347  0.64672319  0.99727297     0.15900
C1893       C  0.54405615  0.87303805  0.00478520    -0.13700
C1894       C  0.57595140  0.87197306  0.00130940    -0.28800
H1895       H  0.53097954  0.86017030  0.50921786     0.15400
H1896       H  0.58938561  0.89574152  0.99906272     0.15900
C1897       C  0.88447530  0.73978131  0.35642203    -0.13700
C1898       C  0.86792434  0.76042194  0.37462158    -0.28800
H1899       H  0.90025834  0.72031012  0.36589233     0.15400
H1900       H  0.85088333  0.77853714  0.36507085     0.15900
C1901       C  0.87177427  0.75991901  0.12404232    -0.13700
C1902       C  0.85870900  0.73712467  0.10531494    -0.28800
H1903       H  0.88613834  0.78079030  0.11499421     0.15400
H1904       H  0.84563915  0.71521407  0.11427797     0.15900
C1905       C  0.60578516  0.76058182  0.36761331    -0.13700
C1906       C  0.63008970  0.75965835  0.38684656    -0.28800
H1907       H  0.58164308  0.76029789  0.37590591     0.15400
H1908       H  0.65406720  0.75713906  0.37839394     0.15900
C1909       C  0.63349246  0.76465585  0.11772393    -0.13700
C1910       C  0.63195468  0.73813702  0.13735456    -0.28800
H1911       H  0.63557779  0.79089707  0.12581807     0.15400
H1912       H  0.63177007  0.71182684  0.12917660     0.15900
C1913       C  0.75696650  0.76205451  0.25782653    -0.13700
C1914       C  0.74046505  0.73316868  0.25117119    -0.28800
H1915       H  0.74606020  0.78296841  0.27010481     0.15400
H1916       H  0.75165643  0.71228605  0.23906257     0.15900
C1917       C  0.99162646  0.73233338  0.24270334    -0.13700
C1918       C  0.50756376  0.76188540  0.22834491    -0.28800
H1919       H  0.00343977  0.71057125  0.25356552     0.15400
H1920       H  0.49564964  0.78301625  0.21669218     0.15900
C1921       C  0.76143970  0.49609354  0.36310645    -0.13700
C1922       C  0.74542516  0.51726729  0.38115522    -0.28800
H1923       H  0.72132558  0.04063942  0.37024773     0.15400
H1924       H  0.72924263  0.53626515  0.37155982     0.15900
C1925       C  0.74771145  0.48439079  0.13138666    -0.13700
C1926       C  0.76255267  0.50607261  0.11257098    -0.28800
H1927       H  0.77983917  0.01522150  0.12190696     0.15400
H1928       H  0.77724097  0.52657681  0.12145660     0.15900
C1929       C  0.69957521  0.88004526  0.26032857    -0.13700
C1930       C  0.67212950  0.87329486  0.24538129    -0.28800
H1931       H  0.70818652  0.86199373  0.27729765     0.15400
H1932       H  0.66344264  0.89165011  0.22868483     0.15900
C1933       C  0.79570006  0.62120353  0.24456086    -0.13700
C1934       C  0.82771947  0.62358493  0.24247513    -0.28800
H1935       H  0.78146337  0.64437451  0.24703114     0.15400
H1936       H  0.84206417  0.60027066  0.24295443     0.15900
C1937       C  0.99268591  0.50641847  0.37718517    -0.13700
C1938       C  0.01101959  0.48732638  0.35939859    -0.28800
H1939       H  0.97506859  0.52370547  0.36740376     0.15400
H1940       H  0.52824107  0.96981931  0.37054452     0.15900
C1941       C  0.99799474  0.49165663  0.12841249    -0.13700
C1942       C  0.01383608  0.51196158  0.10904860    -0.28800
H1943       H  0.47205278  0.97199715  0.12215750     0.15400
H1944       H  0.02906160  0.53229297  0.11739000     0.15900
C1945       C  0.86460827  0.98618741  0.26972720    -0.13700
C1946       C  0.88494191  0.51422482  0.25388677    -0.28800
H1947       H  0.87780669  0.96208835  0.27087057     0.15400
H1948       H  0.87101146  0.53775991  0.25530629     0.15900
C1949       C  0.63493285  0.51170325  0.25450328    -0.13700
C1950       C  0.61628064  0.98513184  0.23974271    -0.28800
H1951       H  0.62193822  0.53570347  0.25717913     0.15400
H1952       H  0.63015220  0.96152427  0.24157783     0.15900
C1953       C  0.91962612  0.87219490  0.25113607    -0.13700
C1954       C  0.95164426  0.87460513  0.24930375    -0.28800
H1955       H  0.90542711  0.89514620  0.25490424     0.15400
H1956       H  0.96604918  0.85139012  0.24814308     0.15900
C1957       C  0.54652060  0.62017228  0.26286390    -0.13700
C1958       C  0.57645266  0.62536259  0.25274142    -0.28800
H1959       H  0.53489505  0.63980238  0.27608314     0.15400
H1960       H  0.58812183  0.60529391  0.24003720     0.15900
Zn1961     Zn  0.96887927  0.97912586  0.72309091     1.49700
Zn1962     Zn  0.52898507  0.51925109  0.72576392     1.49400
Zn1963     Zn  0.98588711  0.53012681  0.77227026     1.49100
Zn1964     Zn  0.52502809  0.95584694  0.76795738     1.49500
O1965       O  0.50173224  0.49461486  0.75371818    -1.81400
O1966       O  0.97433574  0.98651275  0.67910898    -0.72000
O1967       O  0.53563549  0.56820396  0.73637797    -0.71800
O1968       O  0.93738319  0.53133590  0.76756302    -0.71300
O1969       O  0.51713229  0.51428530  0.68166323    -0.72000
O1970       O  0.92908609  0.99671992  0.73624484    -0.71600
O1971       O  0.01048510  0.57647385  0.76871217    -0.72200
O1972       O  0.52259910  0.96230535  0.81255476    -0.71600
O1973       O  0.57227916  0.50376072  0.73343885    -0.72300
O1974       O  0.99419491  0.51269447  0.81444171    -0.71700
O1975       O  0.57242673  0.95736656  0.75891442    -0.72200
O1976       O  0.50152852  0.90970778  0.76153322    -0.72100
O1977       O  0.96019781  0.93017011  0.73067454    -0.71900
C1978       C  0.49338580  0.49959876  0.66958942     0.79900
C1979       C  0.53003573  0.58496664  0.76002272     0.80400
C1980       C  0.91957030  0.51569844  0.74890686     0.79300
C1981       C  0.01039275  0.98333068  0.82941398     0.79700
C1982       C  0.58810563  0.98004732  0.74421760     0.80900
C1983       C  0.97346866  0.90591263  0.74513878     0.79900
Zn1984     Zn  0.72493687  0.97586283  0.71947814     1.49700
Zn1985     Zn  0.73596479  0.53186363  0.77406775     1.49400
Zn1986     Zn  0.77201066  0.95669592  0.77147815     1.49100
Zn1987     Zn  0.78215616  0.51711477  0.72024771     1.49500
O1988       O  0.75498309  0.99555658  0.74755953    -1.81400
O1989       O  0.68398397  0.99573351  0.72777580    -0.72000
O1990       O  0.74428578  0.51852226  0.81771414    -0.71800
O1991       O  0.74578035  0.91211208  0.76590576    -0.71300
O1992       O  0.68728301  0.53285409  0.76836940    -0.72000
O1993       O  0.71353868  0.92660941  0.72848677    -0.71600
O1994       O  0.76818110  0.96763840  0.81475331    -0.72200
O1995       O  0.82432131  0.50079864  0.73001846    -0.71600
O1996       O  0.75968212  0.57882635  0.76708180    -0.72300
O1997       O  0.82010722  0.95393667  0.76724299    -0.71700
O1998       O  0.79043715  0.56656543  0.72845332    -0.72200
O1999       O  0.77130612  0.50971788  0.67633364    -0.72100
O2000       O  0.73585245  0.98350047  0.67571671    -0.71900
C2001       C  0.66987010  0.51432023  0.75142000     0.79900
C2002       C  0.75836364  0.99313926  0.82969583     0.80400
C2003       C  0.72229317  0.90540534  0.74878501     0.79300
C2004       C  0.83797063  0.97638502  0.75477500     0.79700
C2005       C  0.78167800  0.58712699  0.74867146     0.80900
C2006       C  0.75931335  0.99879415  0.66362155     0.79900
Zn2007     Zn  0.60803409  0.78173795  0.72645380     1.49700
Zn2008     Zn  0.59594792  0.72650228  0.78105590     1.49400
Zn2009     Zn  0.64161003  0.70677295  0.72818143     1.49100
Zn2010     Zn  0.65883113  0.76527820  0.77673116     1.49500
O2011       O  0.62591567  0.74518218  0.75242291    -1.81400
O2012       O  0.55982045  0.78132607  0.73345662    -0.72000
O2013       O  0.58547403  0.67722824  0.77382624    -0.71800
O2014       O  0.63124827  0.71530032  0.68480672    -0.71300
O2015       O  0.55472348  0.74617567  0.77312171    -0.72000
O2016       O  0.61347825  0.76927788  0.68248350    -0.71600
O2017       O  0.61844409  0.66110354  0.73802973    -0.72200
O2018       O  0.69868721  0.74851109  0.76239001    -0.71600
O2019       O  0.60759613  0.73292475  0.82420724    -0.72300
O2020       O  0.69014675  0.70753177  0.72879851    -0.71700
O2021       O  0.65523585  0.75654985  0.82101920    -0.72200
O2022       O  0.66626614  0.81503419  0.76819888    -0.72100
O2023       O  0.63255838  0.82806881  0.73150156    -0.71900
C2024       C  0.54282245  0.76422186  0.75211754     0.79900
C2025       C  0.59504228  0.65493016  0.75537619     0.80400
C2026       C  0.62177164  0.74139681  0.66976882     0.79300
C2027       C  0.70851863  0.72832296  0.74245018     0.79700
C2028       C  0.63257037  0.74442507  0.83647871     0.80900
C2029       C  0.65614871  0.83586861  0.74820887     0.79900
Zn2030     Zn  0.84691830  0.72553619  0.71231695     1.49700
Zn2031     Zn  0.90822324  0.76732818  0.71689502     1.49400
Zn2032     Zn  0.85419721  0.78803933  0.76023931     1.49100
Zn2033     Zn  0.88980969  0.71425204  0.76941843     1.49500
O2034       O  0.87431949  0.74856006  0.74058096    -1.81400
O2035       O  0.85858571  0.73342491  0.66881013    -0.72000
O2036       O  0.92093503  0.81371873  0.72963425    -0.71800
O2037       O  0.80710521  0.78707371  0.74986970    -0.71300
O2038       O  0.89921499  0.76923635  0.67324252    -0.72000
O2039       O  0.80452692  0.74252193  0.71878197    -0.71600
O2040       O  0.87909858  0.83401054  0.75346854    -0.72200
O2041       O  0.87932989  0.72975756  0.81129040    -0.71600
O2042       O  0.94738740  0.74274289  0.72391591    -0.72300
O2043       O  0.85507473  0.78033657  0.80502233    -0.71700
O2044       O  0.93809288  0.71614845  0.76758398    -0.72200
O2045       O  0.86746978  0.66666875  0.76391336    -0.72100
O2046       O  0.83868713  0.67610386  0.72283522    -0.71900
C2047       C  0.87940228  0.75321535  0.65722402     0.79900
C2048       C  0.90715945  0.83788244  0.74320018     0.80400
C2049       C  0.79138077  0.76491304  0.73493673     0.79300
C2050       C  0.86582256  0.75635906  0.82193578     0.79700
C2051       C  0.95690880  0.72978275  0.74849084     0.80900
C2052       C  0.84661104  0.65696567  0.74490240     0.79900
Zn2053     Zn  0.52665750  0.97388122  0.96917639     1.49700
Zn2054     Zn  0.98480384  0.97329786  0.52798002     1.49400
Zn2055     Zn  0.51866783  0.54540604  0.52349373     1.49100
Zn2056     Zn  0.96925737  0.51856516  0.96919571     1.49500
O2057       O  0.99886382  0.50578202  0.49392325    -1.81400
O2058       O  0.53435608  0.92533333  0.97971738    -0.72000
O2059       O  0.99491172  0.99042086  0.56918523    -0.71800
O2060       O  0.56652366  0.54403229  0.51602931    -0.71300
O2061       O  0.00739409  0.92567512  0.52431282    -0.72800
O2062       O  0.56902359  0.99033428  0.97652128    -0.71600
O2063       O  0.51520843  0.53809578  0.56823436    -0.72200
O2064       O  0.95941293  0.56639090  0.97882711    -0.71600
O2065       O  0.93614266  0.97295259  0.52688346    -0.72300
O2066       O  0.49533898  0.59193884  0.51420278    -0.71700
O2067       O  0.92898655  0.49891732  0.97927431    -0.72200
O2068       O  0.97667576  0.51533896  0.92524469    -0.72100
O2069       O  0.51579742  0.97947335  0.92532046    -0.71900
C2070       C  0.52850286  0.91685622  0.50180460     0.79900
C2071       C  0.00483728  0.51178771  0.57564406     0.80400
C2072       C  0.58283199  0.52181848  0.50178211     0.79300
C2073       C  0.97032528  0.59692704  0.49148966     0.79700
C2074       C  0.91728163  0.99080845  0.51045404     0.80900
C2075       C  0.99681557  0.49883302  0.91001157     0.79900
Zn2076     Zn  0.73030017  0.96607167  0.51702654     1.49700
Zn2077     Zn  0.76869442  0.54673050  0.52066957     1.49400
Zn2078     Zn  0.78219375  0.98050376  0.97035795     1.49100
Zn2079     Zn  0.71915307  0.52354419  0.97403314     1.49500
O2080       O  0.75183947  0.50256590  0.99824110    -1.81400
O2081       O  0.73184089  0.97073189  0.56187621    -0.72000
O2082       O  0.81630510  0.54752164  0.51329364    -0.71800
O2083       O  0.79133622  0.93058496  0.97610355    -0.71300
O2084       O  0.76658978  0.53590284  0.56451433    -0.72000
O2085       O  0.75376198  0.91996174  0.50891259    -0.71600
O2086       O  0.82323573  0.99734592  0.98383323    -0.72200
O2087       O  0.72776278  0.52408511  0.93001509    -0.71600
O2088       O  0.74382520  0.59282232  0.51551551    -0.72300
O2089       O  0.77322389  0.99160596  0.92622026    -0.71700
O2090       O  0.70749206  0.57017903  0.98736730    -0.72200
O2091       O  0.67942574  0.50100535  0.98136312    -0.72100
O2092       O  0.68323002  0.96750300  0.50658271    -0.71900
C2093       C  0.75630295  0.51072578  0.58010113     0.79900
C2094       C  0.83568218  0.51871193  0.99832735     0.80400
C2095       C  0.78012924  0.90674650  0.99256897     0.79300
C2096       C  0.74852084  0.50887248  0.91445344     0.79700
C2097       C  0.72026639  0.59253788  0.00384919     0.80900
C2098       C  0.66640738  0.97902679  0.99315117     0.79900
Zn2099     Zn  0.65050934  0.72663137  0.97544775     1.49700
Zn2100     Zn  0.60517500  0.72089972  0.53026958     1.49400
Zn2101     Zn  0.64161089  0.79560614  0.52565205     1.49100
Zn2102     Zn  0.58811944  0.76548686  0.97952258     1.49500
O2103       O  0.62229189  0.75699911  0.50344844    -1.81400
O2104       O  0.65988889  0.67830992  0.98640590    -0.72000
O2105       O  0.61280744  0.73514730  0.57335646    -0.71800
O2106       O  0.69028486  0.79553218  0.51987437    -0.71300
O2107       O  0.62841701  0.67358790  0.52450056    -0.72000
O2108       O  0.69244052  0.74419493  0.98012013    -0.71600
O2109       O  0.63444250  0.78741800  0.56983906    -0.72200
O2110       O  0.57973936  0.81457589  0.98604037    -0.71600
O2111       O  0.55660268  0.72101589  0.52539656    -0.72300
O2112       O  0.61855582  0.84176525  0.51642442    -0.71700
O2113       O  0.54905483  0.74800721  0.99543195    -0.72200
O2114       O  0.59110074  0.75653792  0.93530764    -0.72100
O2115       O  0.63816585  0.73152130  0.93226414    -0.71900
C2116       C  0.65053081  0.66543897  0.50632318     0.79900
C2117       C  0.62353887  0.76245233  0.58544249     0.80400
C2118       C  0.70640443  0.77330849  0.50542774     0.79300
C2119       C  0.59334032  0.84748639  0.50120862     0.79700
C2120       C  0.53883952  0.73851039  0.50754293     0.80900
C2121       C  0.61333348  0.74369492  0.91992635     0.79900
Zn2122     Zn  0.84476505  0.76841838  0.96252108     1.49700
Zn2123     Zn  0.88911470  0.78771519  0.52007964     1.49400
Zn2124     Zn  0.85408772  0.71368583  0.51199121     1.49100
Zn2125     Zn  0.90756943  0.72814784  0.96693400     1.49500
O2126       O  0.87268963  0.75409636  0.49145441    -1.81400
O2127       O  0.83758457  0.81795602  0.97075885    -0.72000
O2128       O  0.87995267  0.77081061  0.56209361    -0.71800
O2129       O  0.80616550  0.71418215  0.50731606    -0.71300
O2130       O  0.86700474  0.83552400  0.51548123    -0.72000
O2131       O  0.80237278  0.75294618  0.97215556    -0.71600
O2132       O  0.85874969  0.71887215  0.55613165    -0.72200
O2133       O  0.91729670  0.68007347  0.97737789    -0.71600
O2134       O  0.93728246  0.78746794  0.51717281    -0.72300
O2135       O  0.87787974  0.66851454  0.50279160    -0.71700
O2136       O  0.94804808  0.74740461  0.97888462    -0.72200
O2137       O  0.90025279  0.73140552  0.92256621    -0.72100
O2138       O  0.85495750  0.76029782  0.91868023    -0.71900
C2139       C  0.84513213  0.84538348  0.49740048     0.79900
C2140       C  0.86851208  0.74288817  0.57283787     0.80400
C2141       C  0.78897387  0.73825100  0.49616338     0.79300
C2142       C  0.90370420  0.66438104  0.48845019     0.79700
C2143       C  0.95583482  0.77227606  0.49903724     0.80900
C2144       C  0.87824138  0.74471857  0.90673262     0.79900
C2145       C  0.74096997  0.77129002  0.50692660    -0.13700
C2146       C  0.75529672  0.74029462  0.50294397    -0.28800
H2147       H  0.75463402  0.79489155  0.50890965     0.15400
H2148       H  0.74180189  0.70906219  0.99377724     0.15900
C2149       C  0.50454544  0.74039585  0.51183553    -0.13700
C2150       C  0.98975086  0.77035562  0.50518068    -0.28800
H2151       H  0.49337699  0.70735049  0.02550429     0.15400
H2152       H  0.00307308  0.79424932  0.50666603     0.15900
C2153       C  0.70285806  0.62529869  0.00814611    -0.13700
C2154       C  0.66747645  0.63200437  0.50860456    -0.28800
H2155       H  0.71308982  0.65467930  0.50680492     0.15400
H2156       H  0.65770652  0.60217643  0.01419217     0.15900
C2157       C  0.79708086  0.87314776  0.99331177    -0.13700
C2158       C  0.82919881  0.87125271  0.99418550    -0.28800
H2159       H  0.78315090  0.84960371  0.99347331     0.15400
H2160       H  0.84328141  0.90185610  0.50477264     0.15900
C2161       C  0.88338403  0.99277919  0.51683739    -0.13700
C2162       C  0.86993479  0.51634960  0.00237777    -0.28800
H2163       H  0.86908071  0.95731238  0.01222790     0.15400
H2164       H  0.88097978  0.54692977  0.50192931     0.15900
C2165       C  0.61724903  0.52012022  0.50498365    -0.13700
C2166       C  0.63183802  0.97994501  0.99449310    -0.28800
H2167       H  0.63058104  0.54409050  0.50450788     0.15400
H2168       H  0.61878190  0.95581809  0.99527849     0.15900
C2169       C  0.92122133  0.63140631  0.49040962    -0.13700
C2170       C  0.95330401  0.63031765  0.49234240    -0.28800
H2171       H  0.90908528  0.59971022  0.99743090     0.15400
H2172       H  0.96681573  0.65395557  0.49472896     0.15900
C2173       C  0.54493609  0.88325936  0.50512219    -0.13700
C2174       C  0.57687458  0.88113269  0.50260851    -0.28800
H2175       H  0.53087497  0.84961441  0.00973611     0.15400
H2176       H  0.59098892  0.90450952  0.50122518     0.15900
C2177       C  0.86252004  0.75989237  0.85467651    -0.13700
C2178       C  0.88021651  0.74116173  0.87393684    -0.28800
H2179       H  0.84623478  0.77922289  0.86304998     0.15400
H2180       H  0.89764625  0.72316799  0.86536073     0.15900
C2181       C  0.88105800  0.75841163  0.62463563    -0.13700
C2182       C  0.86609988  0.73776798  0.60542389    -0.28800
H2183       H  0.89585203  0.77928088  0.61622672     0.15400
H2184       H  0.85243560  0.71595485  0.61374921     0.15900
C2185       C  0.63559800  0.74369997  0.86927213    -0.13700
C2186       C  0.61014170  0.74319874  0.88715668    -0.28800
H2187       H  0.65919090  0.74526427  0.87892812     0.15400
H2188       H  0.58650198  0.74439723  0.87753419     0.15900
C2189       C  0.62321712  0.76589639  0.61837888    -0.13700
C2190       C  0.62053421  0.73845863  0.63684801    -0.28800
H2191       H  0.62659504  0.79143394  0.62766586     0.15400
H2192       H  0.61937570  0.71268907  0.62755796     0.15900
C2193       C  0.75713623  0.76214823  0.73884452    -0.13700
C2194       C  0.74182107  0.73191941  0.73396582    -0.28800
H2195       H  0.74498274  0.78376710  0.74904209     0.15400
H2196       H  0.75366683  0.71021276  0.72361978     0.15900
C2197       C  0.99034870  0.73404308  0.75587107    -0.13700
C2198       C  0.50840178  0.76185163  0.74796325    -0.28800
H2199       H  0.00162062  0.71420944  0.76964499     0.15400
H2200       H  0.49694023  0.78044507  0.73304992     0.15900
C2201       C  0.76171340  0.49101609  0.86319120    -0.13700
C2202       C  0.74640238  0.51240554  0.88157152    -0.28800
H2203       H  0.77498777  0.96898753  0.87179195     0.15400
H2204       H  0.73057372  0.53197571  0.87231861     0.15900
C2205       C  0.74677395  0.48940634  0.63148772    -0.13700
C2206       C  0.76046635  0.51218526  0.61285439    -0.28800
H2207       H  0.77964841  0.01982399  0.62214161     0.15400
H2208       H  0.77443369  0.53318414  0.62189622     0.15900
C2209       C  0.70387029  0.87308128  0.75355623    -0.13700
C2210       C  0.67380157  0.86873476  0.74323144    -0.28800
H2211       H  0.71483148  0.85290777  0.76718623     0.15400
H2212       H  0.66273807  0.88880988  0.72957263     0.15900
C2213       C  0.79829668  0.62089262  0.75052394    -0.13700
C2214       C  0.83032799  0.62317738  0.74828125    -0.28800
H2215       H  0.78423633  0.64415134  0.75322654     0.15400
H2216       H  0.84461577  0.59984436  0.74793130     0.15900
C2217       C  0.99469021  0.50180381  0.87711305    -0.13700
C2218       C  0.01287368  0.48356296  0.85845382    -0.28800
H2219       H  0.97727136  0.51975955  0.86795711     0.15400
H2220       H  0.52744128  0.96190574  0.87100074     0.15900
C2221       C  0.99440687  0.49201788  0.62742856    -0.13700
C2222       C  0.00805438  0.51458480  0.60846351    -0.28800
H2223       H  0.47968155  0.97797886  0.62067060     0.15400
H2224       H  0.02151842  0.53612388  0.61721377     0.15900
C2225       C  0.87169166  0.97834619  0.76152669    -0.13700
C2226       C  0.88535853  0.51368051  0.75298462    -0.28800
H2227       H  0.88581569  0.95491349  0.76048142     0.15400
H2228       H  0.87161484  0.53727263  0.75501267     0.15900
C2229       C  0.63534768  0.51363312  0.75419736    -0.13700
C2230       C  0.62257641  0.98180449  0.74685411    -0.28800
H2231       H  0.62234099  0.53757046  0.75719079     0.15400
H2232       H  0.63608128  0.95794166  0.74563888     0.15900
C2233       C  0.92447779  0.87090899  0.74625106    -0.13700
C2234       C  0.95665991  0.87237257  0.74652065    -0.28800
H2235       H  0.91067185  0.89451101  0.74773471     0.15400
H2236       H  0.97059082  0.84878050  0.74749272     0.15900
C2237       C  0.54818725  0.61717742  0.76510218    -0.13700
C2238       C  0.57713026  0.62217323  0.75258500    -0.28800
H2239       H  0.53836242  0.63627555  0.78007232     0.15400
H2240       H  0.58701691  0.60251357  0.73818296     0.15900
loop_ 
_geom_bond_atom_site_label_1 
_geom_bond_atom_site_label_2 
_geom_bond_distance 
_geom_bond_site_symmetry_2 
_ccdc_geom_bond_type 
Zn1           O6   1.989       .  S
Zn1          O10   1.920       .  S
Zn1          O17   1.961       .  S
Zn1        O1685   1.915       .  S
Zn2           O7   1.992       .  S
Zn2           O9   2.025       .  S
Zn2          O13   1.930       .  S
Zn2           O5   1.947   1_445  S
Zn3           O8   2.063       .  S
Zn3          O11   2.067       .  S
Zn3          O14   2.011       .  S
Zn3        O1125   1.955   1_545  S
Zn4          O12   2.006       .  S
Zn4          O15   2.048       .  S
Zn4          O16   2.086   1_455  S
Zn4         O565   1.977       .  S
O5        Zn1681   1.928       .  S
O5        Zn1123   1.964   1_565  S
O5         Zn564   1.981   1_655  S
O6         C1698   1.268       .  A
O7           C19   1.269       .  A
O8           C20   1.279       .  A
O9           C18   1.274   1_455  A
O10         C580   1.264       .  A
O11        C1139   1.280       .  A
O12        C1141   1.270       .  A
O13         C582   1.263   1_545  A
O14         C581   1.274   1_545  A
O15          C22   1.279       .  A
O16        C1143   1.281       .  A
O17          C23   1.263       .  A
C18        O1686   1.272   1_545  A
C18        C1381   1.479   1_545  S
C19        O1131   1.282       .  A
C19         C277   1.490       .  S
C20         O570   1.265   1_545  A
C20         C266   1.465       .  S
C21        O1132   1.273       .  A
C21         O574   1.274       .  A
C21         C818   1.476       .  S
C22         O573   1.266       .  A
C22         C270   1.463       .  S
C23        O1136   1.282       .  A
C23         C274   1.484       .  S
Zn24         O29   1.932       .  S
Zn24         O33   1.987       .  S
Zn24         O40   2.027       .  S
Zn24         O28   1.942       .  S
Zn25         O30   2.037       .  S
Zn25         O32   2.058       .  S
Zn25         O36   2.084       .  S
Zn25        O588   1.981       .  S
Zn26         O31   2.078       .  S
Zn26         O34   2.003       .  S
Zn26         O37   2.048       .  S
Zn26         O28   1.972       .  S
Zn27         O35   1.955       .  S
Zn27         O38   1.974       .  S
Zn27         O39   2.047       .  S
Zn27        O588   1.941       .  S
O28        Zn585   1.977       .  S
O28        Zn587   1.924       .  S
O29         C601   1.266       .  A
O30         C602   1.274       .  A
O31          C43   1.280       .  A
O32          C41   1.279       .  A
O33          C43   1.268       .  A
O34          C42   1.270       .  A
O35         C604   1.268   1_545  A
O36          C45   1.281       .  A
O37          C44   1.278       .  A
O38          C45   1.266       .  A
O39         C606   1.277   1_545  A
O40          C46   1.273       .  A
C41         O589   1.262   1_545  A
C41         C269   1.461       .  S
C42         O590   1.278       .  A
C42         C801   1.481       .  S
C43         C249   1.488       .  S
C44         O595   1.263       .  A
C44         C265   1.459       .  S
C45         C253   1.482       .  S
C46         O599   1.271       .  A
C46         C805   1.476       .  S
Zn47         O52   2.065       .  S
Zn47         O56   2.010       .  S
Zn47         O63   2.072       .  S
Zn47         O51   1.970       .  S
Zn48         O53   1.979       .  S
Zn48         O55   1.901       .  S
Zn48         O59   1.990       .  S
Zn48         O51   1.927       .  S
Zn49         O54   2.045       .  S
Zn49         O57   2.096       .  S
Zn49         O60   2.059       .  S
Zn49         O51   1.955       .  S
Zn50         O58   1.951       .  S
Zn50         O61   2.023       .  S
Zn50         O62   1.993       .  S
Zn50         O51   1.935       .  S
O52          C64   1.280       .  A
O53          C65   1.268       .  A
O54          C66   1.276       .  A
O55          C64   1.260       .  A
O56          C66   1.270       .  A
O57          C65   1.283       .  A
O58          C67   1.269       .  A
O59          C68   1.267       .  A
O60          C67   1.282       .  A
O61          C68   1.275       .  A
O62          C69   1.268       .  A
O63          C69   1.281       .  A
C64         C238   1.467       .  S
C65         C278   1.491       .  S
C66         C230   1.480       .  S
C67         C234   1.471       .  S
C68         C225   1.470       .  S
C69         C250   1.488       .  S
Zn70         O75   2.028       .  S
Zn70         O79   1.954       .  S
Zn70         O86   1.979       .  S
Zn70         O74   1.942       .  S
Zn71         O76   1.966       .  S
Zn71         O78   2.002       .  S
Zn71         O82   1.923       .  S
Zn71         O74   1.929       .  S
Zn72         O77   2.056       .  S
Zn72         O80   2.091       .  S
Zn72         O83   2.016       .  S
Zn72         O74   1.962       .  S
Zn73         O81   2.029       .  S
Zn73         O84   2.044       .  S
Zn73         O85   2.079       .  S
Zn73         O74   1.972       .  S
O75          C87   1.275       .  A
O76          C88   1.265       .  A
O77          C89   1.281       .  A
O78          C87   1.270       .  A
O79          C89   1.268       .  A
O80          C88   1.282       .  A
O81          C90   1.273       .  A
O82          C91   1.263       .  A
O83          C90   1.274       .  A
O84          C91   1.278       .  A
O85          C92   1.281       .  A
O86          C92   1.267       .  A
C87         C221   1.473       .  S
C88         C273   1.482       .  S
C89         C233   1.472       .  S
C90         C217   1.481       .  S
C91         C237   1.463       .  S
C92         C254   1.481       .  S
Zn93         O98   1.963       .  S
Zn93        O102   1.931       .  S
Zn93        O109   2.018       .  S
Zn93       O2057   1.934   1_455  S
Zn94         O99   2.021       .  S
Zn94        O101   2.087       .  S
Zn94        O105   2.061       .  S
Zn94        O657   1.968       .  S
Zn95        O100   2.054       .  S
Zn95        O103   2.019       .  S
Zn95        O106   2.094   1_455  S
Zn95       O1217   1.979   1_544  S
Zn96        O104   1.945       .  S
Zn96        O107   1.916       .  S
Zn96        O108   1.991       .  S
Zn96        O377   1.920       .  S
O97       Zn2053   1.933       .  S
O97        Zn654   1.969   1_556  S
O97       Zn1215   1.970   1_566  S
O97        Zn376   1.920   1_565  S
O98         C390   1.266       .  A
O99         C671   1.276       .  A
O100        C112   1.279   1_554  A
O101       C1230   1.281       .  A
O102        C952   1.264       .  A
O103       C1231   1.273       .  A
O104        C393   1.262       .  A
O105        C114   1.279       .  A
O106       C1233   1.281   1_554  A
O107        C954   1.263   1_545  A
O108        C115   1.268       .  A
O109       C1795   1.273   1_455  A
C110        O378   1.268   1_554  A
C110       O1221   1.281       .  A
C110        C213   1.481       .  S
C111        O659   1.275   1_545  A
C111       O1223   1.272       .  A
C111        C262   1.477       .  S
C112        O942   1.265   1_545  A
C112        C205   1.463       .  S
C113        O384   1.263       .  A
C113       O1226   1.280   1_556  A
C113        C210   1.477       .  S
C114        O947   1.265   1_554  A
C114        C201   1.463       .  S
C115       O1789   1.273   1_545  A
C115        C257   1.471       .  S
Zn116       O121   2.035       .  S
Zn116       O125   2.090       .  S
Zn116       O132   2.053       .  S
Zn116       O960   1.981   1_554  S
Zn117       O122   2.047       .  S
Zn117       O124   1.999       .  S
Zn117       O128   2.081       .  S
Zn117       O400   1.976   1_544  S
Zn118       O123   1.987       .  S
Zn118       O126   1.950       .  S
Zn118       O129   2.052       .  S
Zn118       O680   1.941       .  S
Zn119       O127   2.042       .  S
Zn119       O130   1.996       .  S
Zn119       O131   1.935       .  S
Zn119       O120   1.944       .  S
O120       Zn956   1.972   1_545  S
O120       Zn397   1.975       .  S
O120       Zn678   1.924   1_545  S
O121        C693   1.274       .  A
O122        C414   1.277       .  A
O123        C135   1.267       .  A
O124        C133   1.270       .  A
O125        C415   1.281   1_554  A
O126        C694   1.268       .  A
O127        C136   1.276       .  A
O128        C417   1.280   1_554  A
O129        C696   1.278       .  A
O130        C137   1.268       .  A
O131        C698   1.266   1_545  A
O132        C418   1.279   1_554  A
C133        O681   1.278   1_545  A
C133        C246   1.478       .  S
C134        O402   1.277       .  A
C134        O686   1.263       .  A
C134        C202   1.460       .  S
C135        O405   1.280       .  A
C135        C197   1.483       .  S
C136        O689   1.272   1_545  A
C136        C242   1.479       .  S
C137        O408   1.280       .  A
C137        C193   1.482       .  S
C138        O691   1.262       .  A
C138        O412   1.279       .  A
C138        C206   1.463       .  S
Zn139       O144   1.953       .  S
Zn139       O148   1.894       .  S
Zn139       O155   1.974       .  S
Zn139       O423   1.915       .  S
Zn140       O145   2.012       .  S
Zn140       O147   2.085       .  S
Zn140       O151   2.076       .  S
Zn140       O143   1.979       .  S
Zn141       O146   2.078       .  S
Zn141       O149   2.048       .  S
Zn141       O152   2.103       .  S
Zn141       O143   1.977       .  S
Zn142       O150   1.979       .  S
Zn142       O153   1.940       .  S
Zn142       O154   2.037       .  S
Zn142       O423   1.938       .  S
O143       Zn419   1.932   1_554  S
O143       Zn422   1.929   1_554  S
O144        C436   1.264       .  A
O145        C157   1.272       .  A
O146        C158   1.282   1_554  A
O147        C156   1.281   1_554  A
O148        C438   1.258       .  A
O149        C157   1.278       .  A
O150        C439   1.266       .  A
O151        C160   1.280       .  A
O152        C159   1.283       .  A
O153        C440   1.267       .  A
O154        C161   1.275       .  A
O155        C161   1.266       .  A
C156        O424   1.266       .  A
C156        C194   1.485       .  S
C157        C229   1.479       .  S
C158        O428   1.264       .  A
C158        C185   1.467       .  S
C159        O430   1.265   1_554  A
C159        C214   1.484       .  S
C160        O433   1.261   1_554  A
C160        C189   1.466       .  S
C161        C226   1.467       .  S
Zn162       O167   1.960       .  S
Zn162       O171   1.933       .  S
Zn162       O178   1.998       .  S
Zn162       O446   1.922       .  S
Zn163       O168   2.016       .  S
Zn163       O170   2.065       .  S
Zn163       O174   2.057       .  S
Zn163       O166   1.967   1_554  S
Zn164       O169   2.048       .  S
Zn164       O172   2.016       .  S
Zn164       O175   2.086       .  S
Zn164       O166   1.977   1_554  S
Zn165       O173   1.975       .  S
Zn165       O176   1.967       .  S
Zn165       O177   2.048       .  S
Zn165       O446   1.942       .  S
O166       Zn442   1.944       .  S
O166       Zn445   1.925       .  S
O167        C459   1.265       .  A
O168        C180   1.274       .  A
O169        C181   1.278   1_554  A
O170        C179   1.279   1_554  A
O171        C461   1.263       .  A
O172        C180   1.272       .  A
O173        C462   1.266       .  A
O174        C183   1.278       .  A
O175        C182   1.281   1_554  A
O176        C463   1.270       .  A
O177        C184   1.277       .  A
O178        C184   1.271       .  A
C179        O447   1.268       .  A
C179        C478   1.477       .  S
C180        C222   1.476       .  S
C181        O451   1.266       .  A
C181        C186   1.464       .  S
C182        O453   1.262       .  A
C182        C209   1.478       .  S
C183        O456   1.264   1_554  A
C183        C190   1.463       .  S
C184        C218   1.475       .  S
C185        C186   1.357       .  D
C185        H187   1.086   1_556  S
C186        H468   1.087       .  S
H188        C466   1.087       .  S
C189       C1310   1.356   1_455  D
C189        H471   1.086   1_455  S
C190       C1309   1.356       .  D
C190        H192   1.087       .  S
H191        C469   1.086   1_655  S
C193        C474   1.361       .  D
C193        H475   1.087       .  S
C194        C473   1.359       .  D
C194        H476   1.086   1_556  S
H195        C473   1.086       .  S
H196        C474   1.086       .  S
C197        C198   1.361       .  D
C197        H199   1.087       .  S
C198        C459   1.484       .  S
C198        H480   1.086       .  S
H200        C478   1.087       .  S
C201       C1042   1.356       .  D
C201        H483   1.087       .  S
C202       C1041   1.356   1_545  D
C202        H484   1.087       .  S
H203        C481   1.087       .  S
H204        C482   1.087       .  S
C205       C1046   1.355   1_546  D
C205        H207   1.087       .  S
C206       C1045   1.356       .  D
C206        H208   1.087       .  S
C209        C210   1.360       .  D
C209        H491   1.086   1_556  S
C210        H212   1.086       .  S
H211        C489   1.087       .  S
C213        C214   1.360       .  D
C213        H495   1.086       .  S
C214        H216   1.086       .  S
H215        C493   1.086       .  S
C217        C218   1.344       .  D
C217        H219   1.087       .  S
C218        H220   1.087       .  S
C221        C222   1.343       .  D
C221        H223   1.087       .  S
C222        H224   1.087       .  S
C225        C226   1.336       .  D
C225        H227   1.087       .  S
C226        H228   1.087       .  S
C229        C230   1.342       .  D
C229        H231   1.087       .  S
C230        H232   1.087       .  S
C233        C234   1.359       .  D
C233        H235   1.087       .  S
C234        H236   1.087       .  S
C237       C1358   1.359       .  D
C237        H239   1.087       .  S
C238       C1357   1.360   1_455  D
C238        H240   1.087   1_455  S
C241        C602   1.483       .  S
C241        C242   1.346       .  D
C241        H803   1.086       .  S
C242        H244   1.087   1_545  S
H243        C801   1.087       .  S
C245        C606   1.476       .  S
C245        C246   1.340   1_565  D
C245        H807   1.087       .  S
C246        H248   1.087       .  S
H247        C805   1.087       .  S
C249        C250   1.361       .  D
C249        H251   1.086       .  S
C250        H252   1.086       .  S
C253        C254   1.360       .  D
C253        H255   1.087       .  S
C254        H256   1.087       .  S
C257        C258   1.342   1_545  D
C257        H259   1.087       .  S
C258        C581   1.475       .  S
C258       H1940   1.087       .  S
H260       C1938   1.087       .  S
C261       C1138   1.478       .  S
C261        C262   1.344   1_565  D
C261       H1943   1.087       .  S
C262        H264   1.087       .  S
H263       C1941   1.087       .  S
C265        C826   1.355       .  D
C265        H267   1.087       .  S
C266        C825   1.355   1_545  D
C266        H268   1.087       .  S
C269        C830   1.356   1_545  D
C269        H271   1.087       .  S
C270        C829   1.356       .  D
C270        H272   1.087       .  S
C273        C274   1.362       .  D
C273        H275   1.086       .  S
C274        H276   1.087       .  S
C277        C278   1.363       .  D
C277        H279   1.086       .  S
C278        H280   1.086       .  S
Zn281       O286   2.005       .  S
Zn281       O290   1.931       .  S
Zn281       O297   1.943       .  S
Zn281      O1965   1.920       .  S
Zn282       O287   1.983       .  S
Zn282       O289   2.026       .  S
Zn282       O293   1.927       .  S
Zn282       O285   1.941   1_545  S
Zn283       O288   2.055       .  S
Zn283       O291   2.059       .  S
Zn283       O294   2.009       .  S
Zn283      O1405   1.959   1_545  S
Zn284       O292   2.016       .  S
Zn284       O295   2.046       .  S
Zn284       O296   2.086       .  S
Zn284       O845   1.972       .  S
O285      Zn1961   1.919   1_455  S
O285      Zn1403   1.962   1_465  S
O285       Zn844   1.980       .  S
O286       C1978   1.270       .  A
O287        C299   1.269       .  A
O288        C300   1.278       .  A
O289        C298   1.273   1_455  A
O290        C860   1.264       .  A
O291       C1419   1.279       .  A
O292       C1421   1.272       .  A
O293        C862   1.264   1_545  A
O294        C861   1.273   1_545  A
O295        C302   1.279       .  A
O296       C1423   1.280   1_455  A
O297        C303   1.262       .  A
C298       O1966   1.269   1_545  A
C298       C1661   1.472       .  S
C299       O1411   1.281       .  A
C299        C557   1.490       .  S
C300        O850   1.265   1_545  A
C300        C546   1.464       .  S
C301       O1412   1.272       .  A
C301        O854   1.274       .  A
C301       C1098   1.479       .  S
C302        O853   1.266       .  A
C302        C550   1.461       .  S
C303       O1416   1.279       .  A
C303        C554   1.476       .  S
Zn304       O309   1.928       .  S
Zn304       O313   1.990       .  S
Zn304       O320   2.013       .  S
Zn304       O308   1.942       .  S
Zn305       O310   2.029       .  S
Zn305       O312   2.056       .  S
Zn305       O316   2.082       .  S
Zn305       O868   1.981   1_545  S
Zn306       O311   2.088       .  S
Zn306       O314   2.014       .  S
Zn306       O317   2.058       .  S
Zn306       O308   1.961       .  S
Zn307       O315   1.950   1_545  S
Zn307       O318   1.978       .  S
Zn307       O319   2.041       .  S
Zn307       O868   1.936   1_545  S
O308       Zn865   1.981       .  S
O308       Zn867   1.926       .  S
O309        C881   1.263       .  A
O310        C882   1.273       .  A
O311        C323   1.282       .  A
O312        C321   1.279       .  A
O313        C323   1.269       .  A
O314        C322   1.274       .  A
O315        C884   1.268       .  A
O316        C325   1.280       .  A
O317        C324   1.279       .  A
O318        C325   1.266       .  A
O319        C886   1.276   1_545  A
O320        C326   1.273       .  A
C321        O869   1.262   1_545  A
C321        C549   1.461       .  S
C322        O870   1.273       .  A
C322       C1081   1.478       .  S
C323        C529   1.490       .  S
C324        O875   1.265       .  A
C324        C545   1.462       .  S
C325        C533   1.481       .  S
C326        O879   1.272       .  A
C326       C1085   1.476       .  S
Zn327       O332   2.056       .  S
Zn327       O336   2.037       .  S
Zn327       O343   2.095       .  S
Zn327       O331   1.962       .  S
Zn328       O333   2.002       .  S
Zn328       O335   1.928       .  S
Zn328       O339   2.017       .  S
Zn328       O331   1.937       .  S
Zn329       O334   2.010       .  S
Zn329       O337   2.069       .  S
Zn329       O340   2.051       .  S
Zn329       O331   1.963       .  S
Zn330       O338   1.913       .  S
Zn330       O341   1.994       .  S
Zn330       O342   1.985       .  S
Zn330       O331   1.924       .  S
O332        C344   1.281       .  A
O333        C345   1.269       .  A
O334        C346   1.270       .  A
O335        C344   1.266       .  A
O336        C346   1.275       .  A
O337        C345   1.280       .  A
O338        C347   1.263       .  A
O339        C348   1.273       .  A
O340        C347   1.279       .  A
O341        C348   1.269       .  A
O342        C349   1.268       .  A
O343        C349   1.283       .  A
C344        C518   1.466       .  S
C345        C558   1.488       .  S
C346        C510   1.477       .  S
C347        C514   1.464       .  S
C348        C505   1.468       .  S
C349        C530   1.492       .  S
Zn350       O355   2.019       .  S
Zn350       O359   1.930       .  S
Zn350       O366   1.973       .  S
Zn350       O354   1.931       .  S
Zn351       O356   1.960       .  S
Zn351       O358   1.990       .  S
Zn351       O362   1.930       .  S
Zn351       O354   1.919       .  S
Zn352       O357   2.035       .  S
Zn352       O360   2.072       .  S
Zn352       O363   2.014       .  S
Zn352       O354   1.959       .  S
Zn353       O361   2.045       .  S
Zn353       O364   2.053       .  S
Zn353       O365   2.087       .  S
Zn353       O354   1.951       .  S
O355        C367   1.273       .  A
O356        C368   1.264       .  A
O357        C369   1.278       .  A
O358        C367   1.268       .  A
O359        C369   1.264       .  A
O360        C368   1.280       .  A
O361        C370   1.277       .  A
O362        C371   1.265       .  A
O363        C370   1.271       .  A
O364        C371   1.280       .  A
O365        C372   1.282       .  A
O366        C372   1.268       .  A
C367        C501   1.469       .  S
C368        C553   1.475       .  S
C369        C513   1.460       .  S
C370        C497   1.482       .  S
C371        C517   1.462       .  S
C372        C534   1.481       .  S
Zn373       O378   1.983       .  S
Zn373       O382   1.924       .  S
Zn373       O389   2.038       .  S
Zn373      O1777   1.939       .  S
Zn374       O379   2.032       .  S
Zn374       O381   2.095       .  S
Zn374       O385   2.063       .  S
Zn374       O937   1.974       .  S
Zn375       O380   2.050       .  S
Zn375       O383   2.022       .  S
Zn375       O386   2.089   1_455  S
Zn375      O1497   1.982       .  S
Zn376       O384   1.955       .  S
Zn376       O387   1.913   1_545  S
Zn376       O388   2.000       .  S
O377      Zn1773   1.934   1_545  S
O377       Zn934   1.971   1_545  S
O377      Zn1495   1.979       .  S
O379        C951   1.276       .  A
O380        C392   1.278       .  A
O381       C1510   1.282       .  A
O382        C672   1.263       .  A
O383       C1511   1.272       .  A
O385        C394   1.279       .  A
O386       C1513   1.281       .  A
O387        C674   1.263   1_556  A
O388        C395   1.269   1_545  A
O389       C2075   1.275   1_455  A
C390       O1501   1.281       .  A
C390        C493   1.480       .  S
C391        O939   1.275   1_545  A
C391       O1503   1.274       .  A
C391        C542   1.481       .  S
C392        O662   1.266       .  A
C392        C485   1.463       .  S
C393       O1506   1.280       .  A
C393        C490   1.479       .  S
C394        O667   1.264       .  A
C394        C481   1.463       .  S
C395       O2069   1.273       .  A
C395        C537   1.472       .  S
Zn396       O401   2.024       .  S
Zn396       O405   2.081       .  S
Zn396       O412   2.062       .  S
Zn396       O680   1.978       .  S
Zn397       O402   2.048       .  S
Zn397       O404   2.000       .  S
Zn397       O408   2.074       .  S
Zn398       O403   1.955       .  S
Zn398       O406   1.935       .  S
Zn398       O409   2.011       .  S
Zn398       O960   1.926       .  S
Zn399       O407   2.035       .  S
Zn399       O410   1.991       .  S
Zn399       O411   1.939   1_545  S
Zn399       O400   1.939   1_545  S
O400       Zn676   1.970   1_556  S
O400       Zn958   1.920       .  S
O401        C973   1.273       .  A
O403        C415   1.263       .  A
O404        C413   1.270       .  A
O406        C974   1.265   1_556  A
O407        C416   1.275   1_545  A
O409        C976   1.271       .  A
O410        C417   1.267       .  A
O411        C978   1.267       .  A
C413        O961   1.277   1_545  A
C413        C526   1.477       .  S
C414        O966   1.261   1_544  A
C414        C482   1.458       .  S
C415        C477   1.481       .  S
C416        O969   1.270       .  A
C416        C522   1.473       .  S
C417        C473   1.484       .  S
C418        O971   1.263       .  A
C418        C486   1.460       .  S
Zn419       O424   1.981       .  S
Zn419       O428   1.924       .  S
Zn419       O435   2.008       .  S
Zn420       O425   2.034       .  S
Zn420       O427   2.107       .  S
Zn420       O431   2.072       .  S
Zn420       O423   1.968       .  S
Zn421       O426   2.077       .  S
Zn421       O429   2.019       .  S
Zn421       O432   2.076       .  S
Zn421       O423   1.981       .  S
Zn422       O430   1.964       .  S
Zn422       O433   1.910       .  S
Zn422       O434   2.005       .  S
O425        C437   1.277       .  A
O426        C438   1.280       .  A
O427        C436   1.283       .  A
O429        C437   1.273       .  A
O431        C440   1.281       .  A
O432        C439   1.280       .  A
O434        C441   1.269       .  A
O435        C441   1.272       .  A
C436        C474   1.484       .  S
C437        C509   1.478       .  S
C438        C465   1.466       .  S
C439        C494   1.479       .  S
C440        C469   1.468       .  S
C441        C506   1.470       .  S
Zn442       O447   1.984       .  S
Zn442       O451   1.954       .  S
Zn442       O458   2.054       .  S
Zn443       O448   2.015       .  S
Zn443       O450   2.096       .  S
Zn443       O454   2.051       .  S
Zn443       O446   1.962       .  S
Zn444       O449   2.042       .  S
Zn444       O452   1.998       .  S
Zn444       O455   2.063       .  S
Zn444       O446   1.974       .  S
Zn445       O453   1.949       .  S
Zn445       O456   1.933       .  S
Zn445       O457   2.001       .  S
O448        C460   1.274       .  A
O449        C461   1.276       .  A
O450        C459   1.282       .  A
O452        C460   1.269       .  A
O454        C463   1.279       .  A
O455        C462   1.278       .  A
O457        C464   1.270       .  A
O458        C464   1.278       .  A
C460        C502   1.471       .  S
C461        C466   1.460       .  S
C462        C489   1.476       .  S
C463        C470   1.465       .  S
C464        C498   1.480       .  S
C465        C466   1.358       .  D
C465        H467   1.087       .  S
C469       C1590   1.356   1_455  D
C470       C1589   1.357       .  D
C470        H472   1.087       .  S
C477        C478   1.359       .  D
C477        H479   1.086       .  S
C481        C762   1.355       .  D
C482        C761   1.356   1_545  D
C485        C766   1.355   1_545  D
C485        H487   1.087       .  S
C486        C765   1.356       .  D
C486        H488   1.087       .  S
C489        C490   1.359       .  D
C490        H492   1.086       .  S
C493        C494   1.359       .  D
C494        H496   1.086       .  S
C497        C498   1.342       .  D
C497        H499   1.087       .  S
C498        H500   1.087       .  S
C501        C502   1.339       .  D
C501        H503   1.087       .  S
C502        H504   1.087       .  S
C505        C506   1.340       .  D
C505        H507   1.087       .  S
C506        H508   1.087       .  S
C509        C510   1.343       .  D
C509        H511   1.087       .  S
C510        H512   1.087       .  S
C513        C514   1.357       .  D
C513        H515   1.087       .  S
C514        H516   1.087       .  S
C517       C1638   1.360       .  D
C517        H519   1.087       .  S
C518       C1637   1.360   1_455  D
C518        H520   1.087   1_455  S
C521        C882   1.478       .  S
C521        C522   1.343   1_545  D
C521       H1083   1.087       .  S
C522        H524   1.087       .  S
H523       C1081   1.086       .  S
C525        C886   1.474       .  S
C525        C526   1.340   1_565  D
C525       H1087   1.087       .  S
C526        H528   1.087       .  S
H527       C1085   1.087       .  S
C529        C530   1.363       .  D
C529        H531   1.086       .  S
C530        H532   1.086       .  S
C533        C534   1.359       .  D
C533        H535   1.087       .  S
C534        H536   1.086       .  S
C537        C538   1.342       .  D
C537        H539   1.087   1_565  S
C538        C861   1.474       .  S
C538       H2220   1.087       .  S
H540       C2218   1.087       .  S
C541       C1418   1.477       .  S
C541        C542   1.345   1_565  D
C541       H2223   1.087       .  S
C542        H544   1.086       .  S
H543       C2221   1.087       .  S
C545       C1106   1.356       .  D
C545        H547   1.087       .  S
C546       C1105   1.355   1_545  D
C546        H548   1.087       .  S
C549       C1110   1.357   1_545  D
C549        H551   1.087       .  S
C550       C1109   1.355       .  D
C550        H552   1.087       .  S
C553        C554   1.359       .  D
C553        H555   1.087       .  S
C554        H556   1.087       .  S
C557        C558   1.361       .  D
C557        H559   1.086       .  S
C558        H560   1.087       .  S
Zn561       O566   2.014       .  S
Zn561       O570   1.936       .  S
Zn561       O577   1.964       .  S
Zn561      O1125   1.921       .  S
Zn562       O567   2.000       .  S
Zn562       O569   2.049       .  S
Zn562       O573   1.952       .  S
Zn562       O565   1.945       .  S
Zn563       O568   2.047       .  S
Zn563       O571   2.071       .  S
Zn563       O574   2.008       .  S
Zn563      O1685   1.953       .  S
Zn564       O572   2.032       .  S
Zn564       O575   2.045       .  S
Zn564       O576   2.086   1_455  S
O565      Zn1121   1.918   1_455  S
O565      Zn1683   1.952   1_455  S
O566       C1138   1.272       .  A
O567        C579   1.271       .  A
O568        C580   1.277       .  A
O569        C578   1.278   1_455  A
O571       C1699   1.280       .  A
O572       C1701   1.273       .  A
O575        C582   1.278       .  A
O576       C1703   1.281       .  A
O577        C583   1.264       .  A
C578       O1126   1.271       .  A
C578       C1941   1.478       .  S
C579       O1691   1.280       .  A
C579        C837   1.488       .  S
C580        C826   1.457       .  S
C581       O1692   1.272       .  A
C582        C830   1.459       .  S
C583       O1696   1.280       .  A
C583        C834   1.478       .  S
Zn584       O589   1.916       .  S
Zn584       O593   1.960       .  S
Zn584       O600   1.992       .  S
Zn584       O588   1.929   1_565  S
Zn585       O590   2.052       .  S
Zn585       O592   2.068       .  S
Zn585       O596   2.097       .  S
Zn586       O591   2.095       .  S
Zn586       O594   2.018       .  S
Zn586       O597   2.053       .  S
Zn586       O588   1.970   1_565  S
Zn587       O595   1.920       .  S
Zn587       O598   1.960       .  S
Zn587       O599   2.013       .  S
O591        C603   1.281       .  A
O592        C601   1.282       .  A
O593        C603   1.264       .  A
O594        C602   1.274   1_565  A
O596        C605   1.282       .  A
O597        C604   1.279       .  A
O598        C605   1.264       .  A
O600        C606   1.267       .  A
C601        C829   1.465       .  S
C603        C809   1.489       .  S
C604        C825   1.464       .  S
C605        C813   1.483       .  S
Zn607       O612   2.054       .  S
Zn607       O616   2.016       .  S
Zn607       O623   2.067       .  S
Zn607       O611   1.967       .  S
Zn608       O613   1.992       .  S
Zn608       O615   1.913       .  S
Zn608       O619   2.004       .  S
Zn608       O611   1.934       .  S
Zn609       O614   2.036       .  S
Zn609       O617   2.077       .  S
Zn609       O620   2.047       .  S
Zn609       O611   1.957       .  S
Zn610       O618   1.949       .  S
Zn610       O621   2.018       .  S
Zn610       O622   1.998       .  S
Zn610       O611   1.941       .  S
O612        C624   1.279       .  A
O613        C625   1.269       .  A
O614        C626   1.275       .  A
O615        C624   1.262       .  A
O616        C626   1.271       .  A
O617        C625   1.280       .  A
O618        C627   1.269       .  A
O619        C628   1.270       .  A
O620        C627   1.280       .  A
O621        C628   1.274       .  A
O622        C629   1.268       .  A
O623        C629   1.280       .  A
C624        C798   1.465       .  S
C625        C838   1.489       .  S
C626        C790   1.479       .  S
C627        C794   1.467       .  S
C628        C785   1.472       .  S
C629        C810   1.485       .  S
Zn630       O635   2.028       .  S
Zn630       O639   1.945       .  S
Zn630       O646   1.976       .  S
Zn630       O634   1.933       .  S
Zn631       O636   1.949       .  S
Zn631       O638   1.981       .  S
Zn631       O642   1.924       .  S
Zn631       O634   1.921       .  S
Zn632       O637   2.047       .  S
Zn632       O640   2.092       .  S
Zn632       O643   2.016       .  S
Zn632       O634   1.960       .  S
Zn633       O641   2.042       .  S
Zn633       O644   2.057       .  S
Zn633       O645   2.085       .  S
Zn633       O634   1.960       .  S
O635        C647   1.274       .  A
O636        C648   1.262       .  A
O637        C649   1.279       .  A
O638        C647   1.266       .  A
O639        C649   1.268       .  A
O640        C648   1.281       .  A
O641        C650   1.275       .  A
O642        C651   1.262       .  A
O643        C650   1.274       .  A
O644        C651   1.281       .  A
O645        C652   1.281       .  A
O646        C652   1.266       .  A
C647        C781   1.466       .  S
C648        C833   1.479       .  S
C649        C793   1.468       .  S
C650        C777   1.483       .  S
C651        C797   1.463       .  S
C652        C814   1.482       .  S
Zn653       O658   1.989       .  S
Zn653       O662   1.949   1_565  S
Zn653       O669   2.047       .  S
Zn653      O1497   1.947   1_565  S
Zn654       O659   2.026       .  S
Zn654       O661   2.078       .  S
Zn654       O665   2.048       .  S
Zn655       O660   2.048       .  S
Zn655       O663   2.024       .  S
Zn655       O666   2.085   1_455  S
Zn655      O1777   1.978   1_554  S
Zn656       O664   1.962       .  S
Zn656       O667   1.926       .  S
Zn656       O668   2.002       .  S
Zn656       O937   1.927       .  S
O657      Zn1493   1.942   1_554  S
O657      Zn1775   1.977       .  S
O657       Zn936   1.928   1_554  S
O658        C950   1.268       .  A
O660        C672   1.279   1_554  A
O661       C1790   1.281       .  A
O663       C1791   1.273       .  A
O664        C953   1.264       .  A
O665        C674   1.277       .  A
O666       C1793   1.280   1_554  A
O668        C675   1.270       .  A
O669       C1235   1.277   1_465  A
C670        O938   1.269   1_554  A
C670       O1781   1.283       .  A
C670        C773   1.487       .  S
C671       O1783   1.272       .  A
C671        C822   1.477       .  S
C672        C765   1.458       .  S
C673        O944   1.265   1_554  A
C673       O1786   1.279       .  A
C673        C770   1.481       .  S
C674        C761   1.457       .  S
C675       O1229   1.274       .  A
C675        C817   1.473       .  S
Zn676       O681   2.044       .  S
Zn676       O685   2.102       .  S
Zn676       O692   2.063       .  S
Zn677       O682   2.060       .  S
Zn677       O684   2.009       .  S
Zn677       O688   2.088       .  S
Zn677       O960   1.970   1_554  S
Zn678       O683   1.969       .  S
Zn678       O686   1.923   1_565  S
Zn678       O689   2.011       .  S
Zn679       O687   1.998       .  S
Zn679       O690   1.963       .  S
Zn679       O691   1.912       .  S
Zn679       O680   1.928       .  S
O680       Zn957   1.972       .  S
O682        C974   1.279       .  A
O683        C695   1.265       .  A
O684        C693   1.273       .  A
O685        C975   1.282       .  A
O687        C696   1.269       .  A
O688        C977   1.282       .  A
O690        C697   1.264       .  A
O692        C978   1.282   1_554  A
C693        C806   1.479       .  S
C694        O962   1.278       .  A
C694        C762   1.460       .  S
C695        O965   1.281       .  A
C695        C757   1.483       .  S
C696        C802   1.479       .  S
C697        O968   1.281       .  A
C697        C753   1.482       .  S
C698        O972   1.281       .  A
C698        C766   1.465       .  S
Zn699       O704   1.965       .  S
Zn699       O708   1.887       .  S
Zn699       O715   1.984       .  S
Zn699       O983   1.919       .  S
Zn700       O705   2.024       .  S
Zn700       O707   2.109       .  S
Zn700       O711   2.077       .  S
Zn700       O703   1.975       .  S
Zn701       O706   2.093       .  S
Zn701       O709   2.041       .  S
Zn701       O712   2.101       .  S
Zn701       O703   1.991       .  S
Zn702       O710   1.986       .  S
Zn702       O713   1.927       .  S
Zn702       O714   2.031       .  S
Zn702       O983   1.939       .  S
O703       Zn979   1.920   1_554  S
O703       Zn982   1.944   1_554  S
O704        C996   1.263       .  A
O705        C717   1.275       .  A
O706        C718   1.281       .  A
O707        C716   1.283       .  A
O708        C998   1.259       .  A
O709        C717   1.278       .  A
O710        C999   1.268       .  A
O711        C720   1.282       .  A
O712        C719   1.283       .  A
O713       C1000   1.264       .  A
O714        C721   1.274       .  A
O715        C721   1.267       .  A
C716        O984   1.263   1_554  A
C716        C754   1.487       .  S
C717        C789   1.480       .  S
C718        O988   1.256   1_554  A
C718        C745   1.469       .  S
C719        O990   1.268   1_554  A
C719        C774   1.489       .  S
C720        O993   1.266   1_554  A
C720        C749   1.469       .  S
C721        C786   1.467       .  S
Zn722       O727   1.971       .  S
Zn722       O731   1.945       .  S
Zn722       O738   2.022       .  S
Zn722      O1006   1.927       .  S
Zn723       O728   2.009       .  S
Zn723       O730   2.080       .  S
Zn723       O734   2.060       .  S
Zn723       O726   1.965       .  S
Zn724       O729   2.026       .  S
Zn724       O732   2.002       .  S
Zn724       O735   2.075       .  S
Zn724       O726   1.973       .  S
Zn725       O733   1.984       .  S
Zn725       O736   1.952       .  S
Zn725       O737   2.038       .  S
Zn725      O1006   1.938       .  S
O726      Zn1002   1.943   1_554  S
O726      Zn1005   1.928   1_554  S
O727       C1019   1.266       .  A
O728        C740   1.274       .  A
O729        C741   1.275       .  A
O730        C739   1.281       .  A
O731       C1021   1.264       .  A
O732        C740   1.270       .  A
O733       C1022   1.267       .  A
O734        C743   1.279       .  A
O735        C742   1.279       .  A
O736       C1023   1.268       .  A
O737        C744   1.276       .  A
O738        C744   1.274       .  A
C739       O1007   1.269   1_554  A
C739       C1038   1.483       .  S
C740        C782   1.472       .  S
C741       O1011   1.267   1_554  A
C741        C746   1.459       .  S
C742       O1013   1.265   1_554  A
C742        C769   1.481       .  S
C743       O1016   1.267   1_554  A
C743        C750   1.465       .  S
C744        C778   1.480       .  S
C745        C746   1.359       .  D
C745        H747   1.086       .  S
C746       H1028   1.087       .  S
H748       C1026   1.087       .  S
C749       C1870   1.357   1_455  D
C749       H1031   1.086   1_455  S
C750       C1869   1.357       .  D
C750        H752   1.087       .  S
H751       C1029   1.087   1_655  S
C753       C1034   1.361       .  D
C753       H1035   1.086       .  S
C754       C1033   1.362       .  D
C754       H1036   1.086       .  S
H755       C1033   1.086       .  S
H756       C1034   1.086       .  S
C757        C758   1.360       .  D
C757        H759   1.086       .  S
C758       C1019   1.481       .  S
C758       H1040   1.086       .  S
H760       C1038   1.086       .  S
C761       H1043   1.087       .  S
C762       H1044   1.087       .  S
H763       C1041   1.087       .  S
H764       C1042   1.087       .  S
C765        H767   1.087       .  S
C766        H768   1.087       .  S
C769        C770   1.359       .  D
C769       H1051   1.087       .  S
C770        H772   1.087       .  S
H771       C1049   1.087       .  S
C773        C774   1.361       .  D
C773       H1055   1.086       .  S
C774        H776   1.086       .  S
H775       C1053   1.086       .  S
C777        C778   1.347       .  D
C777        H779   1.086       .  S
C778        H780   1.087       .  S
C781        C782   1.339       .  D
C781        H783   1.087       .  S
C782        H784   1.087       .  S
C785        C786   1.338       .  D
C785        H787   1.087       .  S
C786        H788   1.087       .  S
C789        C790   1.344       .  D
C789        H791   1.087       .  S
C790        H792   1.087       .  S
C793        C794   1.357       .  D
C793        H795   1.087       .  S
C794        H796   1.087       .  S
C797       C1918   1.362       .  D
C797        H799   1.087       .  S
C798       C1917   1.359   1_455  D
C798        H800   1.087   1_455  S
C801        C802   1.341       .  D
C802        H804   1.087       .  S
C805        C806   1.346       .  D
C806        H808   1.086       .  S
C809        C810   1.362       .  D
C809        H811   1.086       .  S
C810        H812   1.087       .  S
C813        C814   1.361       .  D
C813        H815   1.086       .  S
C814        H816   1.087       .  S
C817        C818   1.343       .  D
C817        H819   1.087       .  S
C818       H1380   1.087       .  S
H820       C1378   1.086       .  S
C821       C1698   1.473       .  S
C821        C822   1.341       .  D
C821       H1383   1.087       .  S
C822        H824   1.087       .  S
H823       C1381   1.087       .  S
C825        H827   1.087       .  S
C826        H828   1.087       .  S
C829        H831   1.087       .  S
C830        H832   1.087       .  S
C833        C834   1.360       .  D
C833        H835   1.086       .  S
C834        H836   1.087       .  S
C837        C838   1.360       .  D
C837        H839   1.086       .  S
C838        H840   1.086       .  S
Zn841       O846   2.009       .  S
Zn841       O850   1.941       .  S
Zn841       O857   1.952       .  S
Zn841      O1405   1.920       .  S
Zn842       O847   2.001       .  S
Zn842       O849   2.035       .  S
Zn842       O853   1.942       .  S
Zn842       O845   1.945       .  S
Zn843       O848   2.059       .  S
Zn843       O851   2.076       .  S
Zn843       O854   2.016       .  S
Zn843      O1965   1.964       .  S
Zn844       O852   2.034       .  S
Zn844       O855   2.048       .  S
Zn844       O856   2.091       .  S
O845      Zn1401   1.918   1_455  S
O845      Zn1963   1.952   1_455  S
O846       C1418   1.272       .  A
O847        C859   1.270       .  A
O848        C860   1.279       .  A
O849        C858   1.276   1_455  A
O851       C1979   1.281       .  A
O852       C1981   1.273       .  A
O855        C862   1.280       .  A
O856       C1983   1.281   1_455  A
O857        C863   1.263       .  A
C858       O1406   1.271       .  A
C858       C2221   1.476       .  S
C859       O1971   1.281       .  A
C859       C1117   1.491       .  S
C860       C1106   1.463       .  S
C861       O1972   1.271       .  A
C862       C1110   1.459       .  S
C863       O1976   1.279       .  A
C863       C1114   1.474       .  S
Zn864       O869   1.913       .  S
Zn864       O873   1.967       .  S
Zn864       O880   1.991       .  S
Zn864       O868   1.928       .  S
Zn865       O870   2.030       .  S
Zn865       O872   2.056       .  S
Zn865       O876   2.084       .  S
Zn866       O871   2.095       .  S
Zn866       O874   2.009       .  S
Zn866       O877   2.056       .  S
Zn866       O868   1.963       .  S
Zn867       O875   1.932       .  S
Zn867       O878   1.966       .  S
Zn867       O879   2.018       .  S
O871        C883   1.281       .  A
O872        C881   1.279       .  A
O873        C883   1.265       .  A
O874        C882   1.274   1_565  A
O876        C885   1.280       .  A
O877        C884   1.280       .  A
O878        C885   1.264       .  A
O880        C886   1.268       .  A
C881       C1109   1.463       .  S
C883       C1089   1.490       .  S
C884       C1105   1.464       .  S
C885       C1093   1.481       .  S
Zn887       O892   2.069       .  S
Zn887       O896   2.019       .  S
Zn887       O903   2.075       .  S
Zn887       O891   1.972       .  S
Zn888       O893   1.990       .  S
Zn888       O895   1.901       .  S
Zn888       O899   1.978       .  S
Zn888       O891   1.928       .  S
Zn889       O894   2.023       .  S
Zn889       O897   2.086       .  S
Zn889       O900   2.047       .  S
Zn889       O891   1.953       .  S
Zn890       O898   1.961       .  S
Zn890       O901   2.036       .  S
Zn890       O902   1.997       .  S
Zn890       O891   1.945       .  S
O892        C904   1.281       .  A
O893        C905   1.269       .  A
O894        C906   1.274       .  A
O895        C904   1.260       .  A
O896        C906   1.271       .  A
O897        C905   1.281       .  A
O898        C907   1.271       .  A
O899        C908   1.267       .  A
O900        C907   1.280       .  A
O901        C908   1.276       .  A
O902        C909   1.268       .  A
O903        C909   1.282       .  A
C904       C1078   1.469       .  S
C905       C1118   1.492       .  S
C906       C1070   1.477       .  S
C907       C1074   1.469       .  S
C908       C1065   1.469       .  S
C909       C1090   1.488       .  S
Zn910       O915   2.035       .  S
Zn910       O919   1.947       .  S
Zn910       O926   1.973       .  S
Zn910       O914   1.937       .  S
Zn911       O916   1.942       .  S
Zn911       O918   1.985       .  S
Zn911       O922   1.933       .  S
Zn911       O914   1.919       .  S
Zn912       O917   2.052       .  S
Zn912       O920   2.087       .  S
Zn912       O923   2.024       .  S
Zn912       O914   1.964       .  S
Zn913       O921   2.044       .  S
Zn913       O924   2.056       .  S
Zn913       O925   2.084       .  S
Zn913       O914   1.957       .  S
O915        C927   1.275       .  A
O916        C928   1.262       .  A
O917        C929   1.280       .  A
O918        C927   1.266       .  A
O919        C929   1.266       .  A
O920        C928   1.282       .  A
O921        C930   1.277       .  A
O922        C931   1.265       .  A
O923        C930   1.272       .  A
O924        C931   1.279       .  A
O925        C932   1.283       .  A
O926        C932   1.268       .  A
C927       C1061   1.471       .  S
C928       C1113   1.476       .  S
C929       C1073   1.471       .  S
C930       C1057   1.484       .  S
C931       C1077   1.466       .  S
C932       C1094   1.479       .  S
Zn933       O938   1.992       .  S
Zn933       O942   1.943       .  S
Zn933       O949   2.045       .  S
Zn933      O1217   1.952       .  S
Zn934       O939   2.019       .  S
Zn934       O941   2.082       .  S
Zn934       O945   2.056       .  S
Zn935       O940   2.046       .  S
Zn935       O943   2.015       .  S
Zn935       O946   2.087   1_455  S
Zn935      O2057   1.973   1_455  S
Zn936       O944   1.974       .  S
Zn936       O947   1.934       .  S
Zn936       O948   2.005       .  S
O937      Zn1213   1.940       .  S
O937      Zn2055   1.978       .  S
O940        C952   1.278       .  A
O941       C2070   1.281       .  A
O943       C2071   1.272       .  A
O945        C954   1.278       .  A
O946       C2073   1.280       .  A
O948        C955   1.271       .  A
O949       C1515   1.276   1_455  A
C950       O2061   1.281       .  A
C950       C1053   1.483       .  S
C951       O2063   1.273       .  A
C951       C1102   1.480       .  S
C952       C1045   1.460       .  S
C953       O2066   1.281       .  A
C953       C1050   1.482       .  S
C954       C1041   1.460       .  S
C955       O1509   1.275       .  A
C955       C1097   1.475       .  S
Zn956       O961   2.038       .  S
Zn956       O965   2.091       .  S
Zn956       O972   2.065       .  S
Zn957       O962   2.043       .  S
Zn957       O964   2.015       .  S
Zn957       O968   2.095       .  S
Zn958       O963   1.964       .  S
Zn958       O966   1.911       .  S
Zn958       O969   1.997       .  S
Zn959       O967   2.025       .  S
Zn959       O970   1.988       .  S
Zn959       O971   1.918       .  S
Zn959       O960   1.941       .  S
O963        C975   1.264   1_556  A
O964        C973   1.274       .  A
O967        C976   1.273       .  A
O970        C977   1.268   1_556  A
C973       C1086   1.476       .  S
C974       C1042   1.464       .  S
C975       C1037   1.485       .  S
C976       C1082   1.475       .  S
C977       C1033   1.485       .  S
C978       C1046   1.463   1_556  S
Zn979       O984   1.960       .  S
Zn979       O988   1.877       .  S
Zn979       O995   1.973       .  S
Zn980       O985   2.014       .  S
Zn980       O987   2.090       .  S
Zn980       O991   2.067       .  S
Zn980       O983   1.975       .  S
Zn981       O986   2.083       .  S
Zn981       O989   2.038       .  S
Zn981       O992   2.089       .  S
Zn981       O983   1.984       .  S
Zn982       O990   1.989       .  S
Zn982       O993   1.942       .  S
Zn982       O994   2.038       .  S
O985        C997   1.273       .  A
O986        C998   1.281       .  A
O987        C996   1.280       .  A
O989        C997   1.277       .  A
O991       C1000   1.280       .  A
O992        C999   1.282       .  A
O994       C1001   1.276       .  A
O995       C1001   1.265       .  A
C996       C1034   1.482       .  S
C997       C1069   1.476       .  S
C998       C1025   1.465       .  S
C999       C1054   1.484       .  S
C1000      C1029   1.465       .  S
C1001      C1066   1.467       .  S
Zn1002     O1007   1.990       .  S
Zn1002     O1011   1.959       .  S
Zn1002     O1018   2.055       .  S
Zn1003     O1008   2.027       .  S
Zn1003     O1010   2.089       .  S
Zn1003     O1014   2.052       .  S
Zn1003     O1006   1.963       .  S
Zn1004     O1009   2.036       .  S
Zn1004     O1012   1.995       .  S
Zn1004     O1015   2.068       .  S
Zn1004     O1006   1.971       .  S
Zn1005     O1013   1.974       .  S
Zn1005     O1016   1.946       .  S
Zn1005     O1017   2.015       .  S
O1008      C1020   1.275       .  A
O1009      C1021   1.276       .  A
O1010      C1019   1.281       .  A
O1012      C1020   1.269       .  A
O1014      C1023   1.279       .  A
O1015      C1022   1.279       .  A
O1017      C1024   1.273       .  A
O1018      C1024   1.279       .  A
C1020      C1062   1.473       .  S
C1021      C1026   1.461       .  S
C1022      C1049   1.480       .  S
C1023      C1030   1.462       .  S
C1024      C1058   1.483       .  S
C1025      C1026   1.358       .  D
C1025      H1027   1.086       .  S
C1029      C2150   1.355   1_455  D
C1030      C2149   1.355       .  D
C1030      H1032   1.087       .  S
C1037      C1038   1.361       .  D
C1037      H1039   1.086       .  S
C1045      H1047   1.087       .  S
C1046      H1048   1.087       .  S
C1049      C1050   1.359       .  D
C1050      H1052   1.086       .  S
C1053      C1054   1.358       .  D
C1054      H1056   1.086       .  S
C1057      C1058   1.344       .  D
C1057      H1059   1.087       .  S
C1058      H1060   1.087       .  S
C1061      C1062   1.338       .  D
C1061      H1063   1.087       .  S
C1062      H1064   1.087       .  S
C1065      C1066   1.334       .  D
C1065      H1067   1.087       .  S
C1066      H1068   1.087       .  S
C1069      C1070   1.343       .  D
C1069      H1071   1.087       .  S
C1070      H1072   1.087       .  S
C1073      C1074   1.357       .  D
C1073      H1075   1.087       .  S
C1074      H1076   1.086       .  S
C1077      C2198   1.359       .  D
C1077      H1079   1.087       .  S
C1078      C2197   1.360   1_455  D
C1078      H1080   1.087   1_455  S
C1081      C1082   1.345       .  D
C1082      H1084   1.087       .  S
C1085      C1086   1.345       .  D
C1086      H1088   1.087       .  S
C1089      C1090   1.363       .  D
C1089      H1091   1.086       .  S
C1090      H1092   1.087       .  S
C1093      C1094   1.359       .  D
C1093      H1095   1.087       .  S
C1094      H1096   1.086       .  S
C1097      C1098   1.344       .  D
C1097      H1099   1.087       .  S
C1098      H1660   1.086       .  S
H1100      C1658   1.086       .  S
C1101      C1978   1.478       .  S
C1101      C1102   1.343       .  D
C1101      H1663   1.087       .  S
C1102      H1104   1.087       .  S
H1103      C1661   1.087   1_565  S
C1105      H1107   1.087       .  S
C1106      H1108   1.087       .  S
C1109      H1111   1.087       .  S
C1110      H1112   1.087       .  S
C1113      C1114   1.359       .  D
C1113      H1115   1.087       .  S
C1114      H1116   1.087       .  S
C1117      C1118   1.362       .  D
C1117      H1119   1.086       .  S
C1118      H1120   1.086       .  S
Zn1121     O1126   2.001       .  S
Zn1121     O1130   1.928       .  S
Zn1121     O1137   1.973       .  S
Zn1122     O1127   2.000       .  S
Zn1122     O1129   2.029       .  S
Zn1122     O1133   1.934       .  S
Zn1122     O1125   1.944   1_545  S
Zn1123     O1128   2.062       .  S
Zn1123     O1131   2.085   1_655  S
Zn1123     O1134   2.021       .  S
Zn1124     O1132   2.024       .  S
Zn1124     O1135   2.054       .  S
Zn1124     O1136   2.097       .  S
Zn1124     O1685   1.978       .  S
O1125     Zn1684   1.978       .  S
O1127      C1139   1.271       .  A
O1128      C1140   1.280       .  A
O1129      C1138   1.276   1_545  A
O1130      C1700   1.264       .  A
O1133      C1702   1.264   1_545  A
O1134      C1701   1.275   1_645  A
O1135      C1142   1.280       .  A
O1137      C1143   1.264       .  A
C1139      C1397   1.487       .  S
C1140      O1690   1.266   1_545  A
C1140      C1386   1.464       .  S
C1141      O1694   1.273   1_455  A
C1141      C1938   1.471       .  S
C1142      O1693   1.265       .  A
C1142      C1390   1.462       .  S
C1143      C1394   1.482       .  S
Zn1144     O1149   1.921       .  S
Zn1144     O1153   1.959       .  S
Zn1144     O1160   1.992       .  S
Zn1144     O1148   1.928       .  S
Zn1145     O1150   2.037       .  S
Zn1145     O1152   2.053       .  S
Zn1145     O1156   2.088       .  S
Zn1145     O1708   1.982       .  S
Zn1146     O1151   2.089       .  S
Zn1146     O1154   2.000       .  S
Zn1146     O1157   2.049       .  S
Zn1146     O1148   1.973       .  S
Zn1147     O1155   1.929       .  S
Zn1147     O1158   1.963       .  S
Zn1147     O1159   2.015       .  S
Zn1147     O1708   1.928       .  S
O1148     Zn1705   1.977       .  S
O1148     Zn1707   1.937       .  S
O1149      C1721   1.264       .  A
O1150      C1722   1.274       .  A
O1151      C1163   1.280       .  A
O1152      C1161   1.279       .  A
O1153      C1163   1.264       .  A
O1154      C1162   1.270       .  A
O1155      C1724   1.264   1_545  A
O1156      C1165   1.281       .  A
O1157      C1164   1.279       .  A
O1158      C1165   1.264       .  A
O1159      C1726   1.271   1_545  A
O1160      C1166   1.268       .  A
C1161      O1709   1.264   1_545  A
C1161      C1389   1.462       .  S
C1162      O1710   1.277       .  A
C1162      C1921   1.478       .  S
C1163      C1369   1.488       .  S
C1164      O1715   1.265       .  A
C1164      C1385   1.461       .  S
C1165      C1373   1.482       .  S
C1166      O1719   1.275       .  A
C1166      C1925   1.473       .  S
Zn1167     O1172   2.053       .  S
Zn1167     O1176   2.006       .  S
Zn1167     O1183   2.064       .  S
Zn1167     O1171   1.965       .  S
Zn1168     O1173   1.985       .  S
Zn1168     O1175   1.915       .  S
Zn1168     O1179   2.000       .  S
Zn1168     O1171   1.929       .  S
Zn1169     O1174   2.035       .  S
Zn1169     O1177   2.082       .  S
Zn1169     O1180   2.052       .  S
Zn1169     O1171   1.950       .  S
Zn1170     O1178   1.954       .  S
Zn1170     O1181   2.014       .  S
Zn1170     O1182   1.991       .  S
Zn1170     O1171   1.938       .  S
O1172      C1184   1.279       .  A
O1173      C1185   1.269       .  A
O1174      C1186   1.275       .  A
O1175      C1184   1.262       .  A
O1176      C1186   1.270       .  A
O1177      C1185   1.282       .  A
O1178      C1187   1.269       .  A
O1179      C1188   1.269       .  A
O1180      C1187   1.281       .  A
O1181      C1188   1.274       .  A
O1182      C1189   1.267       .  A
O1183      C1189   1.280       .  A
C1184      C1358   1.465       .  S
C1185      C1398   1.489       .  S
C1186      C1350   1.475       .  S
C1187      C1354   1.469       .  S
C1188      C1345   1.470       .  S
C1189      C1370   1.484       .  S
Zn1190     O1195   2.028       .  S
Zn1190     O1199   1.949       .  S
Zn1190     O1206   1.976       .  S
Zn1190     O1194   1.938       .  S
Zn1191     O1196   1.948       .  S
Zn1191     O1198   1.984       .  S
Zn1191     O1202   1.919       .  S
Zn1191     O1194   1.923       .  S
Zn1192     O1197   2.059       .  S
Zn1192     O1200   2.106       .  S
Zn1192     O1203   2.025       .  S
Zn1192     O1194   1.964       .  S
Zn1193     O1201   2.036       .  S
Zn1193     O1204   2.048       .  S
Zn1193     O1205   2.082       .  S
Zn1193     O1194   1.964       .  S
O1195      C1207   1.274       .  A
O1196      C1208   1.262       .  A
O1197      C1209   1.281       .  A
O1198      C1207   1.266       .  A
O1199      C1209   1.268       .  A
O1200      C1208   1.283       .  A
O1201      C1210   1.274       .  A
O1202      C1211   1.262       .  A
O1203      C1210   1.275       .  A
O1204      C1211   1.279       .  A
O1205      C1212   1.281       .  A
O1206      C1212   1.266       .  A
C1207      C1341   1.468       .  S
C1208      C1393   1.483       .  S
C1209      C1353   1.472       .  S
C1210      C1337   1.484       .  S
C1211      C1357   1.461       .  S
C1212      C1374   1.481       .  S
Zn1213     O1218   1.968       .  S
Zn1213     O1222   1.937       .  S
Zn1213     O1229   2.027       .  S
Zn1214     O1219   2.029       .  S
Zn1214     O1221   2.084   1_655  S
Zn1214     O1225   2.065       .  S
Zn1214     O1777   1.965   1_654  S
Zn1215     O1220   2.051       .  S
Zn1215     O1223   2.016       .  S
Zn1215     O1226   2.078       .  S
Zn1216     O1224   1.964       .  S
Zn1216     O1227   1.935       .  S
Zn1216     O1228   2.003       .  S
Zn1216     O1497   1.927   1_655  S
O1217     Zn1774   1.976   1_456  S
O1217     Zn1496   1.929   1_465  S
O1218      C1510   1.266       .  A
O1219      C1791   1.276   1_655  A
O1220      C1232   1.279   1_554  A
O1222      C2072   1.264       .  A
O1224      C1513   1.264       .  A
O1225      C1234   1.280       .  A
O1227      C2074   1.265   1_545  A
O1228      C1235   1.271       .  A
C1230      O1498   1.268   1_554  A
C1230      C1333   1.481       .  S
C1231      O1779   1.276   1_445  A
C1231      C1382   1.478       .  S
C1232      O2062   1.263   1_545  A
C1232      C1325   1.461       .  S
C1233      O1504   1.264       .  A
C1233      C1330   1.486       .  S
C1234      O2067   1.264   1_554  A
C1234      C1321   1.462       .  S
C1235      C1377   1.478       .  S
Zn1236     O1241   2.032       .  S
Zn1236     O1245   2.079       .  S
Zn1236     O1252   2.061       .  S
Zn1236     O2080   1.968   1_554  S
Zn1237     O1242   2.052       .  S
Zn1237     O1244   2.017       .  S
Zn1237     O1248   2.093       .  S
Zn1237     O1520   1.973   1_544  S
Zn1238     O1243   1.987       .  S
Zn1238     O1246   1.935       .  S
Zn1238     O1249   2.039       .  S
Zn1238     O1800   1.936       .  S
Zn1239     O1247   2.038       .  S
Zn1239     O1250   1.995       .  S
Zn1239     O1251   1.926       .  S
Zn1239     O1240   1.944       .  S
O1240     Zn2076   1.979   1_545  S
O1240     Zn1517   1.966       .  S
O1240     Zn1798   1.924   1_545  S
O1241      C1813   1.276       .  A
O1242      C1534   1.279       .  A
O1243      C1255   1.268       .  A
O1244      C1253   1.274   1_545  A
O1245      C1535   1.280   1_554  A
O1246      C1814   1.264       .  A
O1247      C1256   1.275       .  A
O1248      C1537   1.281       .  A
O1249      C1816   1.277       .  A
O1250      C1257   1.270       .  A
O1251      C1818   1.263   1_545  A
O1252      C1538   1.279       .  A
C1253      O1801   1.274       .  A
C1253      C1366   1.479       .  S
C1254      O1522   1.279       .  A
C1254      O1806   1.266       .  A
C1254      C1322   1.462       .  S
C1255      O1525   1.282       .  A
C1255      C1317   1.484       .  S
C1256      O1809   1.273   1_545  A
C1256      C1362   1.480       .  S
C1257      O1528   1.282       .  A
C1257      C1313   1.485       .  S
C1258      O1811   1.265       .  A
C1258      O1532   1.280       .  A
C1258      C1326   1.463       .  S
Zn1259     O1264   1.966       .  S
Zn1259     O1268   1.885       .  S
Zn1259     O1275   1.977       .  S
Zn1259     O1543   1.918       .  S
Zn1260     O1265   2.017       .  S
Zn1260     O1267   2.081       .  S
Zn1260     O1271   2.061       .  S
Zn1260     O1263   1.973       .  S
Zn1261     O1266   2.078       .  S
Zn1261     O1269   2.032       .  S
Zn1261     O1272   2.083       .  S
Zn1261     O1263   1.982       .  S
Zn1262     O1270   1.989       .  S
Zn1262     O1273   1.924       .  S
Zn1262     O1274   2.029       .  S
Zn1262     O1543   1.938       .  S
O1263     Zn1539   1.917   1_554  S
O1263     Zn1542   1.941   1_554  S
O1264      C1556   1.265       .  A
O1265      C1277   1.272       .  A
O1266      C1278   1.280       .  A
O1267      C1276   1.280       .  A
O1268      C1558   1.257       .  A
O1269      C1277   1.276       .  A
O1270      C1559   1.267       .  A
O1271      C1280   1.280       .  A
O1272      C1279   1.281       .  A
O1273      C1560   1.265       .  A
O1274      C1281   1.274       .  A
O1275      C1281   1.266       .  A
C1276      O1544   1.264   1_554  A
C1276      C1314   1.477       .  S
C1277      C1349   1.478       .  S
C1278      O1548   1.257   1_554  A
C1278      C1305   1.464       .  S
C1279      O1550   1.268   1_554  A
C1279      C1334   1.482       .  S
C1280      O1553   1.266   1_554  A
C1280      C1309   1.464       .  S
C1281      C1346   1.465       .  S
Zn1282     O1287   1.967       .  S
Zn1282     O1291   1.927       .  S
Zn1282     O1298   2.011       .  S
Zn1282     O1566   1.925       .  S
Zn1283     O1288   2.013       .  S
Zn1283     O1290   2.086       .  S
Zn1283     O1294   2.043       .  S
Zn1283     O1286   1.963   1_554  S
Zn1284     O1289   2.034       .  S
Zn1284     O1292   2.003       .  S
Zn1284     O1295   2.077       .  S
Zn1284     O1286   1.973   1_554  S
Zn1285     O1293   1.988       .  S
Zn1285     O1296   1.958       .  S
Zn1285     O1297   2.049       .  S
Zn1285     O1566   1.944       .  S
O1286     Zn1562   1.926       .  S
O1286     Zn1565   1.940       .  S
O1287      C1579   1.265       .  A
O1288      C1300   1.274       .  A
O1289      C1301   1.276       .  A
O1290      C1299   1.280   1_554  A
O1291      C1581   1.262       .  A
O1292      C1300   1.270       .  A
O1293      C1582   1.267       .  A
O1294      C1303   1.278       .  A
O1295      C1302   1.280   1_554  A
O1296      C1583   1.270       .  A
O1297      C1304   1.277       .  A
O1298      C1304   1.272       .  A
C1299      O1567   1.265       .  A
C1299      C1598   1.483   1_556  S
C1300      C1342   1.472       .  S
C1301      O1571   1.265   1_554  A
C1301      C1306   1.458       .  S
C1302      O1573   1.267       .  A
C1302      C1329   1.484       .  S
C1303      O1576   1.269   1_554  A
C1303      C1310   1.461       .  S
C1304      C1338   1.480       .  S
C1305      C1306   1.358       .  D
C1305      H1307   1.087       .  S
C1306      H1588   1.087       .  S
H1308      C1586   1.087       .  S
C1309      H1591   1.087       .  S
C1310      H1312   1.087   1_655  S
H1311      C1589   1.086       .  S
C1313      C1594   1.361       .  D
C1313      H1595   1.086       .  S
C1314      C1593   1.360       .  D
C1314      H1596   1.086       .  S
H1315      C1593   1.086       .  S
H1316      C1594   1.086       .  S
C1317      C1318   1.361       .  D
C1317      H1319   1.086       .  S
C1318      C1579   1.485       .  S
C1318      H1600   1.086       .  S
H1320      C1598   1.086       .  S
C1321      C2162   1.356       .  D
C1321      H1603   1.087       .  S
C1322      C2161   1.355   1_545  D
C1322      H1604   1.087       .  S
H1323      C1601   1.087       .  S
H1324      C1602   1.087       .  S
C1325      C2166   1.357   1_545  D
C1325      H1327   1.087       .  S
C1326      C2165   1.356       .  D
C1326      H1328   1.087       .  S
C1329      C1330   1.361       .  D
C1329      H1611   1.087       .  S
C1330      H1332   1.086       .  S
H1331      C1609   1.087       .  S
C1333      C1334   1.358       .  D
C1333      H1615   1.086       .  S
C1334      H1336   1.086       .  S
H1335      C1613   1.086       .  S
C1337      C1338   1.346       .  D
C1337      H1339   1.086       .  S
C1338      H1340   1.087       .  S
C1341      C1342   1.340       .  D
C1341      H1343   1.087       .  S
C1342      H1344   1.087       .  S
C1345      C1346   1.337       .  D
C1345      H1347   1.087       .  S
C1346      H1348   1.087       .  S
C1349      C1350   1.342       .  D
C1349      H1351   1.087       .  S
C1350      H1352   1.087       .  S
C1353      C1354   1.359       .  D
C1353      H1355   1.087       .  S
C1354      H1356   1.087       .  S
C1357      H1359   1.087   1_655  S
C1358      H1360   1.087       .  S
C1361      C1722   1.483       .  S
C1361      C1362   1.346       .  D
C1361      H1923   1.086       .  S
C1362      H1364   1.087   1_545  S
H1363      C1921   1.087       .  S
C1365      C1726   1.477       .  S
C1365      C1366   1.345       .  D
C1365      H1927   1.087   1_565  S
C1366      H1368   1.086       .  S
H1367      C1925   1.087       .  S
C1369      C1370   1.362       .  D
C1369      H1371   1.086       .  S
C1370      H1372   1.087       .  S
C1373      C1374   1.360       .  D
C1373      H1375   1.086       .  S
C1374      H1376   1.087       .  S
C1377      C1378   1.344   1_645  D
C1377      H1379   1.087       .  S
C1378      C1701   1.481       .  S
C1381      C1382   1.344   1_665  D
C1382      H1384   1.087       .  S
C1385      C1946   1.355       .  D
C1385      H1387   1.087       .  S
C1386      C1945   1.357   1_545  D
C1386      H1388   1.087       .  S
C1389      C1950   1.356   1_545  D
C1389      H1391   1.087       .  S
C1390      C1949   1.356       .  D
C1390      H1392   1.087       .  S
C1393      C1394   1.362       .  D
C1393      H1395   1.086       .  S
C1394      H1396   1.087       .  S
C1397      C1398   1.361       .  D
C1397      H1399   1.086       .  S
C1398      H1400   1.086       .  S
Zn1401     O1406   2.003       .  S
Zn1401     O1410   1.919       .  S
Zn1401     O1417   1.974       .  S
Zn1402     O1407   1.980       .  S
Zn1402     O1409   2.040       .  S
Zn1402     O1413   1.953       .  S
Zn1402     O1405   1.944   1_545  S
Zn1403     O1408   2.054       .  S
Zn1403     O1411   2.087   1_655  S
Zn1403     O1414   2.014       .  S
Zn1404     O1412   2.026       .  S
Zn1404     O1415   2.041       .  S
Zn1404     O1416   2.080       .  S
Zn1404     O1965   1.980       .  S
O1405     Zn1964   1.976       .  S
O1407      C1419   1.269       .  A
O1408      C1420   1.278       .  A
O1409      C1418   1.276   1_545  A
O1410      C1980   1.264       .  A
O1413      C1982   1.266   1_545  A
O1414      C1981   1.274   1_645  A
O1415      C1422   1.278       .  A
O1417      C1423   1.264       .  A
C1419      C1677   1.479       .  S
C1420      O1970   1.263   1_545  A
C1420      C1666   1.458       .  S
C1421      O1974   1.275   1_455  A
C1421      C2218   1.478       .  S
C1422      O1973   1.266       .  A
C1422      C1670   1.461       .  S
C1423      C1674   1.483       .  S
Zn1424     O1429   1.918       .  S
Zn1424     O1433   1.972       .  S
Zn1424     O1440   1.989       .  S
Zn1424     O1428   1.929       .  S
Zn1425     O1430   2.050       .  S
Zn1425     O1432   2.071       .  S
Zn1425     O1436   2.109       .  S
Zn1425     O1988   1.978   1_545  S
Zn1426     O1431   2.097       .  S
Zn1426     O1434   2.003       .  S
Zn1426     O1437   2.049       .  S
Zn1426     O1428   1.973       .  S
Zn1427     O1435   1.915   1_545  S
Zn1427     O1438   1.958       .  S
Zn1427     O1439   1.995       .  S
Zn1427     O1988   1.921   1_545  S
O1428     Zn1985   1.979       .  S
O1428     Zn1987   1.942       .  S
O1429      C2001   1.264       .  A
O1430      C2002   1.278   1_545  A
O1431      C1443   1.282       .  A
O1432      C1441   1.282       .  A
O1433      C1443   1.264       .  A
O1434      C1442   1.271       .  A
O1435      C2004   1.262       .  A
O1436      C1445   1.283       .  A
O1437      C1444   1.279       .  A
O1438      C1445   1.263       .  A
O1439      C2006   1.269   1_545  A
O1440      C1446   1.268       .  A
C1441      O1989   1.266   1_545  A
C1441      C1669   1.466       .  S
C1442      O1990   1.277       .  A
C1442      C2201   1.476       .  S
C1443      C1649   1.492       .  S
C1444      O1995   1.265       .  A
C1444      C1665   1.460       .  S
C1445      C1653   1.488       .  S
C1446      O1999   1.276       .  A
C1446      C2205   1.473       .  S
Zn1447     O1452   2.071       .  S
Zn1447     O1456   2.028       .  S
Zn1447     O1463   2.080       .  S
Zn1447     O1451   1.973       .  S
Zn1448     O1453   1.969       .  S
Zn1448     O1455   1.904       .  S
Zn1448     O1459   1.988       .  S
Zn1448     O1451   1.926       .  S
Zn1449     O1454   2.022       .  S
Zn1449     O1457   2.069       .  S
Zn1449     O1460   2.047       .  S
Zn1449     O1451   1.959       .  S
Zn1450     O1458   1.955       .  S
Zn1450     O1461   2.036       .  S
Zn1450     O1462   2.000       .  S
Zn1450     O1451   1.948       .  S
O1452      C1464   1.281       .  A
O1453      C1465   1.266       .  A
O1454      C1466   1.272       .  A
O1455      C1464   1.260       .  A
O1456      C1466   1.274       .  A
O1457      C1465   1.279       .  A
O1458      C1467   1.269       .  A
O1459      C1468   1.267       .  A
O1460      C1467   1.280       .  A
O1461      C1468   1.276       .  A
O1462      C1469   1.270       .  A
O1463      C1469   1.282       .  A
C1464      C1638   1.470       .  S
C1465      C1678   1.482       .  S
C1466      C1630   1.479       .  S
C1467      C1634   1.469       .  S
C1468      C1625   1.472       .  S
C1469      C1650   1.489       .  S
Zn1470     O1475   2.052       .  S
Zn1470     O1479   1.951       .  S
Zn1470     O1486   1.994       .  S
Zn1470     O1474   1.947       .  S
Zn1471     O1476   1.953       .  S
Zn1471     O1478   1.980       .  S
Zn1471     O1482   1.922       .  S
Zn1471     O1474   1.925       .  S
Zn1472     O1477   2.051       .  S
Zn1472     O1480   2.102       .  S
Zn1472     O1483   2.021       .  S
Zn1472     O1474   1.971       .  S
Zn1473     O1481   2.030       .  S
Zn1473     O1484   2.056       .  S
Zn1473     O1485   2.086       .  S
Zn1473     O1474   1.966       .  S
O1475      C1487   1.277       .  A
O1476      C1488   1.262       .  A
O1477      C1489   1.280       .  A
O1478      C1487   1.266       .  A
O1479      C1489   1.268       .  A
O1480      C1488   1.282       .  A
O1481      C1490   1.273       .  A
O1482      C1491   1.263       .  A
O1483      C1490   1.274       .  A
O1484      C1491   1.280       .  A
O1485      C1492   1.282       .  A
O1486      C1492   1.268       .  A
C1487      C1621   1.473       .  S
C1488      C1673   1.484       .  S
C1489      C1633   1.470       .  S
C1490      C1617   1.480       .  S
C1491      C1637   1.466       .  S
C1492      C1654   1.485       .  S
Zn1493     O1498   1.981       .  S
Zn1493     O1502   1.943       .  S
Zn1493     O1509   2.036       .  S
Zn1494     O1499   2.027       .  S
Zn1494     O1501   2.087   1_655  S
Zn1494     O1505   2.064       .  S
Zn1494     O2057   1.971       .  S
Zn1495     O1500   2.049       .  S
Zn1495     O1503   2.033       .  S
Zn1495     O1506   2.088       .  S
Zn1496     O1504   1.971       .  S
Zn1496     O1507   1.931   1_545  S
Zn1496     O1508   2.004       .  S
O1497     Zn2054   1.972   1_445  S
O1499      C2071   1.276   1_655  A
O1500      C1512   1.278       .  A
O1502      C1792   1.265       .  A
O1505      C1514   1.279       .  A
O1507      C1794   1.264   1_556  A
O1508      C1515   1.271   1_545  A
C1510      C1613   1.483       .  S
C1511      O2059   1.274   1_445  A
C1511      C1662   1.475       .  S
C1512      O1782   1.263       .  A
C1512      C1605   1.459       .  S
C1513      C1610   1.483       .  S
C1514      O1787   1.262       .  A
C1514      C1601   1.461       .  S
C1515      C1657   1.477       .  S
Zn1516     O1521   2.031       .  S
Zn1516     O1525   2.089       .  S
Zn1516     O1532   2.064       .  S
Zn1516     O1800   1.967       .  S
Zn1517     O1522   2.057       .  S
Zn1517     O1524   2.015       .  S
Zn1517     O1528   2.088       .  S
Zn1518     O1523   1.985       .  S
Zn1518     O1526   1.944       .  S
Zn1518     O1529   2.036       .  S
Zn1518     O2080   1.936       .  S
Zn1519     O1527   1.990       .  S
Zn1519     O1530   1.948       .  S
Zn1519     O1531   1.914       .  S
Zn1519     O1520   1.928   1_545  S
O1520     Zn1796   1.977   1_556  S
O1520     Zn2078   1.941       .  S
O1521      C2093   1.276       .  A
O1523      C1535   1.268       .  A
O1524      C1533   1.274   1_545  A
O1526      C2094   1.265       .  A
O1527      C1536   1.267       .  A
O1529      C2096   1.277       .  A
O1530      C1537   1.262   1_556  A
O1531      C2098   1.262   1_545  A
C1533      O2081   1.271       .  A
C1533      C1646   1.474       .  S
C1534      O2086   1.267   1_544  A
C1534      C1602   1.463       .  S
C1535      C1597   1.481   1_556  S
C1536      O2089   1.277   1_545  A
C1536      C1642   1.476       .  S
C1537      C1593   1.479       .  S
C1538      O2091   1.264   1_554  A
C1538      C1606   1.462       .  S
Zn1539     O1544   1.958       .  S
Zn1539     O1548   1.883       .  S
Zn1539     O1555   1.984       .  S
Zn1540     O1545   2.042       .  S
Zn1540     O1547   2.110       .  S
Zn1540     O1551   2.085       .  S
Zn1540     O1543   1.976       .  S
Zn1541     O1546   2.074       .  S
Zn1541     O1549   2.012       .  S
Zn1541     O1552   2.080       .  S
Zn1541     O1543   1.981       .  S
Zn1542     O1550   1.983       .  S
Zn1542     O1553   1.937       .  S
Zn1542     O1554   2.043       .  S
O1545      C1557   1.277       .  A
O1546      C1558   1.279       .  A
O1547      C1556   1.283       .  A
O1549      C1557   1.273       .  A
O1551      C1560   1.283       .  A
O1552      C1559   1.280       .  A
O1554      C1561   1.275       .  A
O1555      C1561   1.267       .  A
C1556      C1594   1.488       .  S
C1557      C1629   1.476       .  S
C1558      C1585   1.463       .  S
C1559      C1614   1.482       .  S
C1560      C1589   1.469       .  S
C1561      C1626   1.471       .  S
Zn1562     O1567   1.976       .  S
Zn1562     O1571   1.939       .  S
Zn1562     O1578   2.016       .  S
Zn1563     O1568   2.037       .  S
Zn1563     O1570   2.102       .  S
Zn1563     O1574   2.062       .  S
Zn1563     O1566   1.967       .  S
Zn1564     O1569   2.036       .  S
Zn1564     O1572   2.002       .  S
Zn1564     O1575   2.071       .  S
Zn1564     O1566   1.975       .  S
Zn1565     O1573   1.993       .  S
Zn1565     O1576   1.953       .  S
Zn1565     O1577   2.037       .  S
O1568      C1580   1.277       .  A
O1569      C1581   1.276       .  A
O1570      C1579   1.283       .  A
O1572      C1580   1.269       .  A
O1574      C1583   1.281       .  A
O1575      C1582   1.279       .  A
O1577      C1584   1.277       .  A
O1578      C1584   1.274       .  A
C1580      C1622   1.478       .  S
C1581      C1586   1.458       .  S
C1582      C1609   1.481       .  S
C1583      C1590   1.466       .  S
C1584      C1618   1.477       .  S
C1585      C1586   1.358       .  D
C1585      H1587   1.087       .  S
C1590      H1592   1.086   1_655  S
C1597      C1598   1.359       .  D
C1597      H1599   1.087       .  S
C1601      C1882   1.356       .  D
C1602      C1881   1.355   1_545  D
C1605      C1886   1.355   1_545  D
C1605      H1607   1.087       .  S
C1606      C1885   1.354       .  D
C1606      H1608   1.087       .  S
C1609      C1610   1.360       .  D
C1610      H1612   1.086       .  S
C1613      C1614   1.360       .  D
C1614      H1616   1.086       .  S
C1617      C1618   1.345       .  D
C1617      H1619   1.087       .  S
C1618      H1620   1.087       .  S
C1621      C1622   1.339       .  D
C1621      H1623   1.087       .  S
C1622      H1624   1.087       .  S
C1625      C1626   1.337       .  D
C1625      H1627   1.087       .  S
C1626      H1628   1.087       .  S
C1629      C1630   1.343       .  D
C1629      H1631   1.087       .  S
C1630      H1632   1.087       .  S
C1633      C1634   1.358       .  D
C1633      H1635   1.087       .  S
C1634      H1636   1.087       .  S
C1637      H1639   1.087   1_655  S
C1638      H1640   1.087       .  S
C1641      C2002   1.477       .  S
C1641      C1642   1.339   1_565  D
C1641      H2203   1.087       .  S
C1642      H1644   1.087       .  S
H1643      C2201   1.087       .  S
C1645      C2006   1.472   1_545  S
C1645      C1646   1.341   1_545  D
C1645      H2207   1.087       .  S
C1646      H1648   1.087       .  S
H1647      C2205   1.087       .  S
C1649      C1650   1.363       .  D
C1649      H1651   1.086       .  S
C1650      H1652   1.086       .  S
C1653      C1654   1.362       .  D
C1653      H1655   1.086       .  S
C1654      H1656   1.087       .  S
C1657      C1658   1.345   1_655  D
C1657      H1659   1.087   1_565  S
C1658      C1981   1.481       .  S
C1661      C1662   1.343   1_655  D
C1662      H1664   1.087       .  S
C1665      C2226   1.356       .  D
C1665      H1667   1.087       .  S
C1666      C2225   1.356   1_545  D
C1666      H1668   1.087       .  S
C1669      C2230   1.356   1_545  D
C1669      H1671   1.087       .  S
C1670      C2229   1.356       .  D
C1670      H1672   1.087       .  S
C1673      C1674   1.361       .  D
C1673      H1675   1.086       .  S
C1674      H1676   1.087       .  S
C1677      C1678   1.359       .  D
C1677      H1679   1.086       .  S
C1678      H1680   1.087       .  S
Zn1681     O1686   2.020       .  S
Zn1681     O1690   1.934       .  S
Zn1681     O1697   1.963       .  S
Zn1682     O1687   1.991       .  S
Zn1682     O1689   2.041       .  S
Zn1682     O1693   1.938       .  S
Zn1682     O1685   1.942       .  S
Zn1683     O1688   2.053       .  S
Zn1683     O1691   2.069   1_655  S
Zn1683     O1694   2.006       .  S
Zn1684     O1692   2.017       .  S
Zn1684     O1695   2.049       .  S
Zn1684     O1696   2.079       .  S
O1687      C1699   1.270       .  A
O1688      C1700   1.278       .  A
O1689      C1698   1.276       .  A
O1695      C1702   1.278       .  A
O1697      C1703   1.264       .  A
C1699      C1957   1.486       .  S
C1700      C1946   1.460       .  S
C1702      C1950   1.461       .  S
C1703      C1954   1.481       .  S
Zn1704     O1709   1.932       .  S
Zn1704     O1713   1.989       .  S
Zn1704     O1720   2.026       .  S
Zn1704     O1708   1.948   1_565  S
Zn1705     O1710   2.047       .  S
Zn1705     O1712   2.065       .  S
Zn1705     O1716   2.094       .  S
Zn1706     O1711   2.095       .  S
Zn1706     O1714   2.026       .  S
Zn1706     O1717   2.064       .  S
Zn1706     O1708   1.971   1_565  S
Zn1707     O1715   1.937       .  S
Zn1707     O1718   1.979       .  S
Zn1707     O1719   2.032       .  S
O1711      C1723   1.283       .  A
O1712      C1721   1.280       .  A
O1713      C1723   1.269       .  A
O1714      C1722   1.275   1_565  A
O1716      C1725   1.282       .  A
O1717      C1724   1.280       .  A
O1718      C1725   1.267       .  A
O1720      C1726   1.273       .  A
C1721      C1949   1.463       .  S
C1723      C1929   1.493       .  S
C1724      C1945   1.464       .  S
C1725      C1933   1.485       .  S
Zn1727     O1732   2.077       .  S
Zn1727     O1736   2.034       .  S
Zn1727     O1743   2.089       .  S
Zn1727     O1731   1.978       .  S
Zn1728     O1733   1.988       .  S
Zn1728     O1735   1.899       .  S
Zn1728     O1739   1.994       .  S
Zn1728     O1731   1.932       .  S
Zn1729     O1734   2.015       .  S
Zn1729     O1737   2.069       .  S
Zn1729     O1740   2.039       .  S
Zn1729     O1731   1.956       .  S
Zn1730     O1738   1.958       .  S
Zn1730     O1741   2.026       .  S
Zn1730     O1742   1.998       .  S
Zn1730     O1731   1.943       .  S
O1732      C1744   1.281       .  A
O1733      C1745   1.267       .  A
O1734      C1746   1.271       .  A
O1735      C1744   1.261       .  A
O1736      C1746   1.274       .  A
O1737      C1745   1.279       .  A
O1738      C1747   1.269       .  A
O1739      C1748   1.268       .  A
O1740      C1747   1.279       .  A
O1741      C1748   1.275       .  A
O1742      C1749   1.269       .  A
O1743      C1749   1.284       .  A
C1744      C1918   1.470       .  S
C1745      C1958   1.487       .  S
C1746      C1910   1.477       .  S
C1747      C1914   1.468       .  S
C1748      C1905   1.471       .  S
C1749      C1930   1.492       .  S
Zn1750     O1755   2.052       .  S
Zn1750     O1759   1.959       .  S
Zn1750     O1766   1.993       .  S
Zn1750     O1754   1.949       .  S
Zn1751     O1756   1.971       .  S
Zn1751     O1758   1.992       .  S
Zn1751     O1762   1.925       .  S
Zn1751     O1754   1.931       .  S
Zn1752     O1757   2.039       .  S
Zn1752     O1760   2.081       .  S
Zn1752     O1763   2.019       .  S
Zn1752     O1754   1.969       .  S
Zn1753     O1761   2.029       .  S
Zn1753     O1764   2.043       .  S
Zn1753     O1765   2.082       .  S
Zn1753     O1754   1.970       .  S
O1755      C1767   1.277       .  A
O1756      C1768   1.265       .  A
O1757      C1769   1.278       .  A
O1758      C1767   1.269       .  A
O1759      C1769   1.270       .  A
O1760      C1768   1.280       .  A
O1761      C1770   1.273       .  A
O1762      C1771   1.263       .  A
O1763      C1770   1.274       .  A
O1764      C1771   1.278       .  A
O1765      C1772   1.281       .  A
O1766      C1772   1.268       .  A
C1767      C1901   1.475       .  S
C1768      C1953   1.480       .  S
C1769      C1913   1.468       .  S
C1770      C1897   1.480       .  S
C1771      C1917   1.462       .  S
C1772      C1934   1.485       .  S
Zn1773     O1778   1.970       .  S
Zn1773     O1782   1.922   1_565  S
Zn1773     O1789   2.025       .  S
Zn1774     O1779   2.030       .  S
Zn1774     O1781   2.097   1_655  S
Zn1774     O1785   2.063       .  S
Zn1775     O1780   2.039       .  S
Zn1775     O1783   2.015       .  S
Zn1775     O1786   2.077       .  S
Zn1776     O1784   1.948       .  S
Zn1776     O1787   1.913       .  S
Zn1776     O1788   1.986       .  S
Zn1776     O2057   1.919       .  S
O1777     Zn2056   1.919   1_455  S
O1778      C2070   1.266       .  A
O1780      C1792   1.277   1_554  A
O1784      C2073   1.262       .  A
O1785      C1794   1.279       .  A
O1788      C1795   1.267       .  A
C1790      O2058   1.266   1_554  A
C1790      C1893   1.475       .  S
C1791      C1942   1.481       .  S
C1792      C1885   1.459   1_556  S
C1793      O2064   1.262       .  A
C1793      C1890   1.479       .  S
C1794      C1881   1.464       .  S
C1795      C1937   1.468       .  S
Zn1796     O1801   2.030       .  S
Zn1796     O1805   2.086       .  S
Zn1796     O1812   2.062       .  S
Zn1797     O1802   2.043       .  S
Zn1797     O1804   1.998       .  S
Zn1797     O1808   2.083       .  S
Zn1797     O2080   1.973   1_554  S
Zn1798     O1803   1.970       .  S
Zn1798     O1806   1.937   1_565  S
Zn1798     O1809   2.015       .  S
Zn1799     O1807   2.008       .  S
Zn1799     O1810   1.975       .  S
Zn1799     O1811   1.925       .  S
Zn1799     O1800   1.928       .  S
O1800     Zn2077   1.974       .  S
O1802      C2094   1.277   1_554  A
O1803      C1815   1.264       .  A
O1804      C1813   1.270       .  A
O1805      C2095   1.281   1_554  A
O1807      C1816   1.270       .  A
O1808      C2097   1.280       .  A
O1810      C1817   1.264       .  A
O1812      C2098   1.279   1_554  A
C1813      C1926   1.474       .  S
C1814      O2082   1.277       .  A
C1814      C1882   1.459       .  S
C1815      O2085   1.279       .  A
C1815      C1877   1.479       .  S
C1816      C1922   1.479       .  S
C1817      O2088   1.280       .  A
C1817      C1873   1.480       .  S
C1818      O2092   1.277       .  A
C1818      C1886   1.458       .  S
Zn1819     O1824   1.955       .  S
Zn1819     O1828   1.890       .  S
Zn1819     O1835   1.975       .  S
Zn1819     O2103   1.914       .  S
Zn1820     O1825   2.024       .  S
Zn1820     O1827   2.083       .  S
Zn1820     O1831   2.070       .  S
Zn1820     O1823   1.973       .  S
Zn1821     O1826   2.072       .  S
Zn1821     O1829   2.030       .  S
Zn1821     O1832   2.077       .  S
Zn1821     O1823   1.978       .  S
Zn1822     O1830   1.981       .  S
Zn1822     O1833   1.937       .  S
Zn1822     O1834   2.040       .  S
Zn1822     O2103   1.937       .  S
O1823     Zn2099   1.927   1_554  S
O1823     Zn2102   1.927   1_554  S
O1824      C2116   1.264       .  A
O1825      C1837   1.275       .  A
O1826      C1838   1.280   1_554  A
O1827      C1836   1.281       .  A
O1828      C2118   1.258       .  A
O1829      C1837   1.274       .  A
O1830      C2119   1.267       .  A
O1831      C1840   1.280       .  A
O1832      C1839   1.280       .  A
O1833      C2120   1.266       .  A
O1834      C1841   1.275       .  A
O1835      C1841   1.266       .  A
C1836      O2104   1.266   1_554  A
C1836      C1874   1.479       .  S
C1837      C1909   1.479       .  S
C1838      O2108   1.261       .  A
C1838      C1865   1.465       .  S
C1839      O2110   1.264   1_554  A
C1839      C1894   1.476       .  S
C1840      O2113   1.263   1_554  A
C1840      C1869   1.465       .  S
C1841      C1906   1.468       .  S
Zn1842     O1847   1.964       .  S
Zn1842     O1851   1.935       .  S
Zn1842     O1858   2.009       .  S
Zn1842     O2126   1.923       .  S
Zn1843     O1848   2.028       .  S
Zn1843     O1850   2.087       .  S
Zn1843     O1854   2.067       .  S
Zn1843     O1846   1.962   1_554  S
Zn1844     O1849   2.046       .  S
Zn1844     O1852   2.017       .  S
Zn1844     O1855   2.081       .  S
Zn1844     O1846   1.979   1_554  S
Zn1845     O1853   1.978       .  S
Zn1845     O1856   1.955       .  S
Zn1845     O1857   2.039       .  S
Zn1845     O2126   1.936       .  S
O1846     Zn2122   1.941       .  S
O1846     Zn2125   1.929       .  S
O1847      C2139   1.265       .  A
O1848      C1860   1.276       .  A
O1849      C1861   1.278   1_554  A
O1850      C1859   1.282   1_554  A
O1851      C2141   1.263       .  A
O1852      C1860   1.272       .  A
O1853      C2142   1.266       .  A
O1854      C1863   1.280       .  A
O1855      C1862   1.280   1_554  A
O1856      C2143   1.268       .  A
O1857      C1864   1.276       .  A
O1858      C1864   1.272       .  A
C1859      O2127   1.268       .  A
C1859      C2158   1.483       .  S
C1860      C1902   1.480       .  S
C1861      O2131   1.264       .  A
C1861      C1866   1.461       .  S
C1862      O2133   1.263       .  A
C1862      C1889   1.478       .  S
C1863      O2136   1.266   1_554  A
C1863      C1870   1.467       .  S
C1864      C1898   1.477       .  S
C1865      C1866   1.358       .  D
C1865      H1867   1.087       .  S
C1866      H2148   1.087       .  S
H1868      C2146   1.087       .  S
C1869      H2151   1.087       .  S
C1870      H1872   1.087   1_655  S
H1871      C2149   1.087       .  S
C1873      C2154   1.360       .  D
C1873      H2155   1.087       .  S
C1874      C2153   1.358       .  D
C1874      H2156   1.086       .  S
H1875      C2153   1.086       .  S
H1876      C2154   1.086       .  S
C1877      C1878   1.359       .  D
C1877      H1879   1.087       .  S
C1878      C2139   1.478       .  S
C1878      H2160   1.086       .  S
H1880      C2158   1.086       .  S
C1881      H2163   1.087       .  S
C1882      H2164   1.087       .  S
H1883      C2161   1.087       .  S
H1884      C2162   1.087       .  S
C1885      H1887   1.087   1_554  S
C1886      H1888   1.087       .  S
C1889      C1890   1.360       .  D
C1889      H2171   1.086       .  S
C1890      H1892   1.086       .  S
H1891      C2169   1.087       .  S
C1893      C1894   1.358       .  D
C1893      H2175   1.086       .  S
C1894      H1896   1.086   1_554  S
H1895      C2173   1.086       .  S
C1897      C1898   1.344       .  D
C1897      H1899   1.087       .  S
C1898      H1900   1.087       .  S
C1901      C1902   1.342       .  D
C1901      H1903   1.087       .  S
C1902      H1904   1.087       .  S
C1905      C1906   1.337       .  D
C1905      H1907   1.087       .  S
C1906      H1908   1.087       .  S
C1909      C1910   1.344       .  D
C1909      H1911   1.087       .  S
C1910      H1912   1.087       .  S
C1913      C1914   1.355       .  D
C1913      H1915   1.087       .  S
C1914      H1916   1.087       .  S
C1917      H1919   1.087   1_655  S
C1918      H1920   1.086       .  S
C1921      C1922   1.341       .  D
C1922      H1924   1.087       .  S
C1925      C1926   1.339       .  D
C1926      H1928   1.087       .  S
C1929      C1930   1.364       .  D
C1929      H1931   1.086       .  S
C1930      H1932   1.086       .  S
C1933      C1934   1.360       .  D
C1933      H1935   1.086       .  S
C1934      H1936   1.087       .  S
C1937      C1938   1.340   1_655  D
C1937      H1939   1.087       .  S
C1941      C1942   1.343   1_655  D
C1942      H1944   1.087       .  S
C1945      H1947   1.087       .  S
C1946      H1948   1.087       .  S
C1949      H1951   1.087       .  S
C1950      H1952   1.087       .  S
C1953      C1954   1.359       .  D
C1953      H1955   1.087       .  S
C1954      H1956   1.087       .  S
C1957      C1958   1.360       .  D
C1957      H1959   1.086       .  S
C1958      H1960   1.087       .  S
Zn1961     O1966   1.996       .  S
Zn1961     O1970   1.911       .  S
Zn1961     O1977   1.958       .  S
Zn1962     O1967   1.980       .  S
Zn1962     O1969   2.042       .  S
Zn1962     O1973   1.952       .  S
Zn1962     O1965   1.945       .  S
Zn1963     O1968   2.060       .  S
Zn1963     O1971   2.081   1_655  S
Zn1963     O1974   2.023       .  S
Zn1964     O1972   2.014       .  S
Zn1964     O1975   2.046       .  S
Zn1964     O1976   2.069       .  S
O1967      C1979   1.269       .  A
O1968      C1980   1.280       .  A
O1969      C1978   1.276       .  A
O1975      C1982   1.278       .  A
O1977      C1983   1.263       .  A
C1979      C2237   1.485       .  S
C1980      C2226   1.460       .  S
C1982      C2230   1.463       .  S
C1983      C2234   1.483       .  S
Zn1984     O1989   1.932       .  S
Zn1984     O1993   2.005       .  S
Zn1984     O2000   2.029       .  S
Zn1984     O1988   1.945       .  S
Zn1985     O1990   2.040       .  S
Zn1985     O1992   2.072       .  S
Zn1985     O1996   2.099       .  S
Zn1986     O1991   2.071       .  S
Zn1986     O1994   1.991       .  S
Zn1986     O1997   2.045       .  S
Zn1986     O1988   1.969       .  S
Zn1987     O1995   1.936       .  S
Zn1987     O1998   1.986       .  S
Zn1987     O1999   2.037       .  S
O1991      C2003   1.280       .  A
O1992      C2001   1.281       .  A
O1993      C2003   1.269       .  A
O1994      C2002   1.269       .  A
O1996      C2005   1.282       .  A
O1997      C2004   1.277       .  A
O1998      C2005   1.267       .  A
O2000      C2006   1.275       .  A
C2001      C2229   1.465       .  S
C2003      C2209   1.489       .  S
C2004      C2225   1.458       .  S
C2005      C2213   1.489       .  S
Zn2007     O2012   2.063       .  S
Zn2007     O2016   2.042       .  S
Zn2007     O2023   2.088       .  S
Zn2007     O2011   1.967       .  S
Zn2008     O2013   1.990       .  S
Zn2008     O2015   1.930       .  S
Zn2008     O2019   2.006       .  S
Zn2008     O2011   1.938       .  S
Zn2009     O2014   2.008       .  S
Zn2009     O2017   2.067       .  S
Zn2009     O2020   2.052       .  S
Zn2009     O2011   1.966       .  S
Zn2010     O2018   1.919       .  S
Zn2010     O2021   2.009       .  S
Zn2010     O2022   1.986       .  S
Zn2010     O2011   1.932       .  S
O2012      C2024   1.282       .  A
O2013      C2025   1.268       .  A
O2014      C2026   1.270       .  A
O2015      C2024   1.265       .  A
O2016      C2026   1.275       .  A
O2017      C2025   1.280       .  A
O2018      C2027   1.263       .  A
O2019      C2028   1.272       .  A
O2020      C2027   1.278       .  A
O2021      C2028   1.270       .  A
O2022      C2029   1.269       .  A
O2023      C2029   1.282       .  A
C2024      C2198   1.469       .  S
C2025      C2238   1.485       .  S
C2026      C2190   1.477       .  S
C2027      C2194   1.465       .  S
C2028      C2185   1.470       .  S
C2029      C2210   1.492       .  S
Zn2030     O2035   2.027       .  S
Zn2030     O2039   1.931       .  S
Zn2030     O2046   1.997       .  S
Zn2030     O2034   1.937       .  S
Zn2031     O2036   1.967       .  S
Zn2031     O2038   1.986       .  S
Zn2031     O2042   1.931       .  S
Zn2031     O2034   1.923       .  S
Zn2032     O2037   2.042       .  S
Zn2032     O2040   2.090       .  S
Zn2032     O2043   2.019       .  S
Zn2032     O2034   1.966       .  S
Zn2033     O2041   2.022       .  S
Zn2033     O2044   2.044       .  S
Zn2033     O2045   2.089       .  S
Zn2033     O2034   1.950       .  S
O2035      C2047   1.275       .  A
O2036      C2048   1.263       .  A
O2037      C2049   1.279       .  A
O2038      C2047   1.268       .  A
O2039      C2049   1.264       .  A
O2040      C2048   1.282       .  A
O2041      C2050   1.275       .  A
O2042      C2051   1.265       .  A
O2043      C2050   1.272       .  A
O2044      C2051   1.278       .  A
O2045      C2052   1.282       .  A
O2046      C2052   1.270       .  A
C2047      C2181   1.469       .  S
C2048      C2233   1.483       .  S
C2049      C2193   1.462       .  S
C2050      C2177   1.478       .  S
C2051      C2197   1.460       .  S
C2052      C2214   1.486       .  S
Zn2053     O2058   1.959       .  S
Zn2053     O2062   1.930       .  S
Zn2053     O2069   2.019       .  S
Zn2054     O2059   2.009       .  S
Zn2054     O2061   2.084   1_655  S
Zn2054     O2065   2.057       .  S
Zn2055     O2060   2.052       .  S
Zn2055     O2063   2.021       .  S
Zn2055     O2066   2.089       .  S
Zn2056     O2064   1.951       .  S
Zn2056     O2067   1.919       .  S
Zn2056     O2068   1.995       .  S
O2060      C2072   1.279       .  A
O2065      C2074   1.278       .  A
O2068      C2075   1.268       .  A
C2070      C2173   1.479       .  S
C2071      C2222   1.477       .  S
C2072      C2165   1.462       .  S
C2073      C2170   1.480       .  S
C2074      C2161   1.464       .  S
C2075      C2217   1.475       .  S
Zn2076     O2081   2.015       .  S
Zn2076     O2085   2.077       .  S
Zn2076     O2092   2.042       .  S
Zn2077     O2082   2.040       .  S
Zn2077     O2084   2.000       .  S
Zn2077     O2088   2.080       .  S
Zn2078     O2083   1.984       .  S
Zn2078     O2086   1.950       .  S
Zn2078     O2089   2.047       .  S
Zn2079     O2087   2.001       .  S
Zn2079     O2090   1.971       .  S
Zn2079     O2091   1.921       .  S
Zn2079     O2080   1.924       .  S
O2083      C2095   1.267       .  A
O2084      C2093   1.270       .  A
O2087      C2096   1.270       .  A
O2090      C2097   1.264   1_556  A
C2093      C2206   1.475       .  S
C2094      C2162   1.461   1_556  S
C2095      C2157   1.484       .  S
C2096      C2202   1.476       .  S
C2097      C2153   1.480       .  S
C2098      C2166   1.463       .  S
Zn2099     O2104   1.968       .  S
Zn2099     O2108   1.911       .  S
Zn2099     O2115   2.003       .  S
Zn2100     O2105   2.034       .  S
Zn2100     O2107   2.096       .  S
Zn2100     O2111   2.064       .  S
Zn2100     O2103   1.971       .  S
Zn2101     O2106   2.074       .  S
Zn2101     O2109   2.019       .  S
Zn2101     O2112   2.071       .  S
Zn2101     O2103   1.980       .  S
Zn2102     O2110   1.959       .  S
Zn2102     O2113   1.921       .  S
Zn2102     O2114   2.014       .  S
O2105      C2117   1.277       .  A
O2106      C2118   1.279       .  A
O2107      C2116   1.282       .  A
O2109      C2117   1.273       .  A
O2111      C2120   1.280       .  A
O2112      C2119   1.279       .  A
O2114      C2121   1.270       .  A
O2115      C2121   1.271       .  A
C2116      C2154   1.481       .  S
C2117      C2189   1.479       .  S
C2118      C2145   1.464       .  S
C2119      C2174   1.478       .  S
C2120      C2149   1.465       .  S
C2121      C2186   1.470       .  S
Zn2122     O2127   1.981       .  S
Zn2122     O2131   1.939       .  S
Zn2122     O2138   2.035       .  S
Zn2123     O2128   2.019       .  S
Zn2123     O2130   2.080       .  S
Zn2123     O2134   2.040       .  S
Zn2123     O2126   1.962       .  S
Zn2124     O2129   2.035       .  S
Zn2124     O2132   1.994       .  S
Zn2124     O2135   2.063       .  S
Zn2124     O2126   1.971       .  S
Zn2125     O2133   1.956       .  S
Zn2125     O2136   1.943       .  S
Zn2125     O2137   2.007       .  S
O2128      C2140   1.275       .  A
O2129      C2141   1.276       .  A
O2130      C2139   1.280       .  A
O2132      C2140   1.268       .  A
O2134      C2143   1.277       .  A
O2135      C2142   1.278       .  A
O2137      C2144   1.271       .  A
O2138      C2144   1.275       .  A
C2140      C2182   1.471       .  S
C2141      C2146   1.458       .  S
C2142      C2169   1.476       .  S
C2143      C2150   1.460       .  S
C2144      C2178   1.476       .  S
C2145      C2146   1.357       .  D
C2145      H2147   1.087       .  S
C2150      H2152   1.087   1_655  S
C2157      C2158   1.360       .  D
C2157      H2159   1.086       .  S
C2165      H2167   1.087       .  S
C2166      H2168   1.087       .  S
C2169      C2170   1.359       .  D
C2170      H2172   1.086       .  S
C2173      C2174   1.357       .  D
C2174      H2176   1.087       .  S
C2177      C2178   1.343       .  D
C2177      H2179   1.087       .  S
C2178      H2180   1.087       .  S
C2181      C2182   1.338       .  D
C2181      H2183   1.087       .  S
C2182      H2184   1.087       .  S
C2185      C2186   1.342       .  D
C2185      H2187   1.087       .  S
C2186      H2188   1.087       .  S
C2189      C2190   1.343       .  D
C2189      H2191   1.087       .  S
C2190      H2192   1.087       .  S
C2193      C2194   1.359       .  D
C2193      H2195   1.087       .  S
C2194      H2196   1.087       .  S
C2197      H2199   1.086   1_655  S
C2198      H2200   1.087       .  S
C2201      C2202   1.341       .  D
C2202      H2204   1.087       .  S
C2205      C2206   1.339       .  D
C2206      H2208   1.087       .  S
C2209      C2210   1.362       .  D
C2209      H2211   1.087       .  S
C2210      H2212   1.086       .  S
C2213      C2214   1.361       .  D
C2213      H2215   1.086       .  S
C2214      H2216   1.086       .  S
C2217      C2218   1.342   1_655  D
C2217      H2219   1.087       .  S
C2221      C2222   1.342   1_655  D
C2222      H2224   1.087       .  S
C2225      H2227   1.087       .  S
C2226      H2228   1.087       .  S
C2229      H2231   1.087       .  S
C2230      H2232   1.087       .  S
C2233      C2234   1.361       .  D
C2233      H2235   1.086       .  S
C2234      H2236   1.086       .  S
C2237      C2238   1.360       .  D
C2237      H2239   1.086       .  S
C2238      H2240   1.087       .  S
